36
Coordinates from ORCA-job neb_5_67_CI_MEP.QMRegion E -2202.349137412005
  H      -4.009674      1.157157      6.989796
  O      -3.869973      1.785580      7.737177
  H      -4.771832      2.137866      7.941126
  H      -3.923587      4.829716      7.769471
  O      -3.334819      4.415659      7.104476
  H      -3.533984      3.462604      7.138628
  H      -0.540452      2.046579      7.671985
  O      -1.161643      1.985971      6.925546
  H      -2.016945      1.769408      7.312794
  H      -2.532762      3.001408     10.413136
  O      -2.379960      2.071145     10.163090
  H      -2.892653      1.943251      9.343513
  H      -6.421304      3.322716      7.303261
  O      -6.253384      2.894279      8.177843
  H      -6.794904      2.085632      8.198725
  H      -2.118644      5.423410     10.658572
  O      -2.849552      4.786428     10.858332
  H      -3.045872      4.951019     11.784676
  H      -4.366372      5.219110      9.794723
  O      -4.976067      5.382714      9.052703
  H      -5.607304      4.648853      9.078019
  H      -6.765803     -0.396621      7.628658
  O      -7.007406      0.151194      8.403606
  H      -7.870244     -0.174103      8.674493
  H      -5.199772     -1.970644      6.815034
  O      -5.931027     -1.473608      6.402022
  H      -5.955525     -1.841876      5.487150
  H      -3.631098     -3.795143      7.636326
  O      -3.606557     -2.989844      7.112779
  H      -3.389363     -3.284455      6.198273
  H      -2.393161     -1.569851      7.567295
  O      -2.084092     -0.732610      7.942289
  H      -2.518856     -0.714095      8.807322
  S      -4.123342     -0.782289     10.705388
  H      -3.556744      0.435564     10.908987
  H      -5.093118     -0.270031      9.917004
36
Coordinates from ORCA-job neb_5_67_CI_MEP.QMRegion E -2202.344140624672
  H      -3.969355      1.113528      6.969939
  O      -3.830115      1.723146      7.735669
  H      -4.735684      2.080084      7.923828
  H      -3.928480      4.795673      7.733701
  O      -3.323940      4.380402      7.082577
  H      -3.525306      3.428844      7.113175
  H      -0.519040      2.037447      7.669016
  O      -1.139950      1.978977      6.922016
  H      -2.003622      1.791558      7.307609
  H      -2.497554      3.056907     10.350720
  O      -2.354692      2.109891     10.159129
  H      -2.875436      1.935164      9.353948
  H      -6.381867      3.292081      7.271650
  O      -6.220176      2.827667      8.129039
  H      -6.775367      2.025059      8.108277
  H      -2.135970      5.439993     10.632674
  O      -2.875429      4.798416     10.781049
  H      -3.099949      4.911120     11.708764
  H      -4.378752      5.237838      9.720355
  O      -4.993680      5.373503      8.976763
  H      -5.619374      4.636788      9.026920
  H      -6.798729     -0.415103      7.530026
  O      -7.141920      0.165044      8.240619
  H      -8.050578     -0.118977      8.367889
  H      -5.176702     -2.010249      6.816429
  O      -5.896499     -1.507745      6.393777
  H      -5.913535     -1.872115      5.475665
  H      -3.610786     -3.882402      7.623415
  O      -3.567993     -3.060814      7.127263
  H      -3.361179     -3.329824      6.201434
  H      -2.389782     -1.647501      7.589531
  O      -2.087584     -0.775792      7.885647
  H      -2.586574     -0.616012      8.691871
  S      -4.472712     -0.108942     11.505972
  H      -3.583502      0.904158     11.336297
  H      -5.358005      0.462411     10.664636
36
Coordinates from ORCA-job neb_5_67_CI_MEP.QMRegion E -2202.342542724412
  H      -3.963210      1.109696      6.966959
  O      -3.824130      1.706316      7.743620
  H      -4.729615      2.068469      7.927870
  H      -3.938866      4.797718      7.727584
  O      -3.328486      4.379712      7.083012
  H      -3.532556      3.429684      7.112652
  H      -0.519904      2.048640      7.671632
  O      -1.140215      1.986437      6.924317
  H      -2.007461      1.817228      7.310850
  H      -2.493166      3.080717     10.337437
  O      -2.354016      2.128408     10.166251
  H      -2.879125      1.940657      9.367636
  H      -6.373871      3.288033      7.265715
  O      -6.213840      2.814092      8.118249
  H      -6.771889      2.012714      8.084682
  H      -2.150262      5.457443     10.627164
  O      -2.893038      4.815256     10.755029
  H      -3.128989      4.907275     11.682269
  H      -4.393401      5.258813      9.698096
  O      -5.009706      5.386462      8.954004
  H      -5.634379      4.649846      9.013511
  H      -6.818487     -0.409490      7.506156
  O      -7.189132      0.180623      8.193918
  H      -8.111269     -0.078524      8.264346
  H      -5.176302     -2.011861      6.822649
  O      -5.891444     -1.507039      6.395983
  H      -5.906194     -1.871367      5.477610
  H      -3.610606     -3.900717      7.624100
  O      -3.562446     -3.073674      7.137502
  H      -3.357612     -3.333273      6.208449
  H      -2.393947     -1.664170      7.602888
  O      -2.086413     -0.782074      7.859929
  H      -2.622705     -0.555965      8.623878
  S      -4.650715      0.332157     11.878191
  H      -3.607961      1.108309     11.481114
  H      -5.457694      0.868999     10.940501
36
Coordinates from ORCA-job neb_5_67_CI_MEP.QMRegion E -2202.342530250874
  H      -3.961003      1.101333      6.975983
  O      -3.822566      1.683389      7.763923
  H      -4.726229      2.057505      7.943364
  H      -3.948770      4.794832      7.729185
  O      -3.335419      4.372117      7.089949
  H      -3.539787      3.423498      7.127215
  H      -0.529876      2.057488      7.681907
  O      -1.147860      1.990052      6.932880
  H      -2.019668      1.848208      7.320631
  H      -2.511578      3.060255     10.361995
  O      -2.365783      2.111611     10.176133
  H      -2.902011      1.932378      9.383209
  H      -6.364507      3.267651      7.268967
  O      -6.200669      2.794946      8.121043
  H      -6.760704      1.993110      8.090786
  H      -2.156968      5.451537     10.629148
  O      -2.903408      4.814324     10.755864
  H      -3.142241      4.909765     11.682242
  H      -4.411054      5.276382      9.688514
  O      -5.024692      5.393310      8.940696
  H      -5.649108      4.657460      9.009873
  H      -6.852399     -0.389196      7.484253
  O      -7.245261      0.206522      8.153844
  H      -8.177845     -0.022798      8.166799
  H      -5.190225     -2.007418      6.827074
  O      -5.899831     -1.500750      6.394560
  H      -5.906140     -1.864838      5.475426
  H      -3.625286     -3.926939      7.614391
  O      -3.566536     -3.090161      7.145967
  H      -3.354986     -3.333019      6.213821
  H      -2.418828     -1.685524      7.631004
  O      -2.092688     -0.796146      7.834703
  H      -2.652513     -0.488485      8.551164
  S      -4.801810      0.901053     12.217022
  H      -3.660990      1.282637     11.585111
  H      -5.552435      1.250418     11.152342
36
Coordinates from ORCA-job neb_5_67_CI_MEP.QMRegion E -2202.342713430137
  H      -3.949855      1.095617      6.958579
  O      -3.806445      1.659350      7.760317
  H      -4.707957      2.038640      7.940535
  H      -3.952285      4.795445      7.716015
  O      -3.334265      4.370330      7.081765
  H      -3.542609      3.423500      7.114218
  H      -0.519790      2.063951      7.675643
  O      -1.140434      1.995535      6.928838
  H      -2.012919      1.864702      7.319497
  H      -2.493965      3.083176     10.338255
  O      -2.352651      2.126622     10.185810
  H      -2.880954      1.928667      9.393512
  H      -6.349333      3.266967      7.258863
  O      -6.187497      2.781011      8.104238
  H      -6.751531      1.982383      8.059195
  H      -2.170718      5.467225     10.616364
  O      -2.917649      4.824378     10.705068
  H      -3.178224      4.876257     11.629496
  H      -4.410799      5.291573      9.655100
  O      -5.028998      5.407508      8.909752
  H      -5.655010      4.674441      8.987426
  H      -6.854771     -0.399477      7.457969
  O      -7.266619      0.204165      8.109128
  H      -8.205678      0.007911      8.062321
  H      -5.173932     -2.015658      6.828626
  O      -5.883246     -1.508226      6.396621
  H      -5.891798     -1.871567      5.476907
  H      -3.609175     -3.941407      7.616907
  O      -3.555156     -3.102593      7.151570
  H      -3.346924     -3.340795      6.217354
  H      -2.403920     -1.697824      7.631111
  O      -2.078049     -0.803734      7.809096
  H      -2.689251     -0.438514      8.453308
  S      -4.837182      1.524916     12.442904
  H      -3.701115      1.493119     11.700676
  H      -5.594630      1.701001     11.340924
36
Coordinates from ORCA-job neb_5_67_CI_MEP.QMRegion E -2202.343739872952
  H      -3.942230      1.087975      6.947539
  O      -3.792356      1.628744      7.765004
  H      -4.690351      2.014302      7.947944
  H      -3.961306      4.794232      7.702477
  O      -3.336772      4.366533      7.075516
  H      -3.547252      3.421281      7.104873
  H      -0.515525      2.073743      7.672780
  O      -1.140093      2.002269      6.929487
  H      -2.011945      1.883407      7.326251
  H      -2.482718      3.112069     10.316197
  O      -2.344038      2.147039     10.215661
  H      -2.871838      1.910078      9.435732
  H      -6.336644      3.257643      7.252562
  O      -6.176438      2.762736      8.093029
  H      -6.744659      1.967194      8.036883
  H      -2.183328      5.488066     10.602479
  O      -2.932409      4.843784     10.651547
  H      -3.217746      4.850803     11.571050
  H      -4.416836      5.307279      9.621819
  O      -5.041848      5.419910      8.880227
  H      -5.664294      4.684923      8.963401
  H      -6.866910     -0.403952      7.428429
  O      -7.306210      0.205616      8.056066
  H      -8.245413      0.052849      7.925296
  H      -5.162066     -2.022843      6.835928
  O      -5.867284     -1.511669      6.401832
  H      -5.877237     -1.874493      5.481782
  H      -3.596108     -3.964334      7.619517
  O      -3.545854     -3.120771      7.162315
  H      -3.335956     -3.349210      6.226236
  H      -2.399473     -1.708868      7.647478
  O      -2.066627     -0.813140      7.798314
  H      -2.718790     -0.388784      8.361418
  S      -4.817267      2.169211     12.594179
  H      -3.771169      1.770247     11.826183
  H      -5.632056      2.237192     11.521114
36
Coordinates from ORCA-job neb_5_67_CI_MEP.QMRegion E -2202.345282539513
  H      -3.930333      1.057360      6.941390
  O      -3.769390      1.560522      7.781944
  H      -4.662997      1.952284      7.972284
  H      -3.975506      4.763999      7.686979
  O      -3.343488      4.335095      7.068119
  H      -3.552428      3.391094      7.103219
  H      -0.513754      2.066368      7.677045
  O      -1.144555      1.998426      6.938474
  H      -2.015185      1.895667      7.343756
  H      -2.482036      3.114551     10.309200
  O      -2.349167      2.143458     10.271803
  H      -2.874781      1.860434      9.507577
  H      -6.312829      3.211132      7.249377
  O      -6.150793      2.709206      8.084217
  H      -6.725259      1.917109      8.022349
  H      -2.196588      5.491563     10.583083
  O      -2.945874      4.848376     10.586742
  H      -3.273226      4.814892     11.496811
  H      -4.427764      5.311423      9.576345
  O      -5.066417      5.406838      8.842135
  H      -5.679262      4.666255      8.940489
  H      -6.895297     -0.421789      7.372327
  O      -7.377719      0.202970      7.951977
  H      -8.298537      0.111414      7.694104
  H      -5.147821     -2.053919      6.848080
  O      -5.844921     -1.536176      6.409391
  H      -5.851571     -1.896547      5.487838
  H      -3.576845     -4.024545      7.618761
  O      -3.525499     -3.171026      7.180555
  H      -3.311947     -3.377613      6.240506
  H      -2.409726     -1.740762      7.688715
  O      -2.057550     -0.845506      7.781420
  H      -2.747786     -0.331562      8.210651
  S      -4.722754      3.055403     12.727777
  H      -3.875741      2.286695     11.999648
  H      -5.626807      3.084612     11.726679
