33
Coordinates from ORCA-job neb_268_274_CI_MEP.QMRegion E -2131.016290389957
  H      -1.578205      4.473304      7.802653
  O      -0.675589      4.584946      8.176433
  H      -0.439356      5.526833      8.106448
  H      -3.812756      4.629388      7.977824
  O      -3.213088      4.226905      7.307322
  H      -3.404518      3.271986      7.396619
  H      -3.714195      5.289829      5.742849
  O      -3.669002      6.086471      5.192322
  H      -2.725940      6.363198      5.295819
  H      -6.142503      3.188055      7.374192
  O      -6.025943      2.727730      8.241695
  H      -6.591825      1.930146      8.162640
  H      -5.611950      3.651000      5.262972
  O      -6.370728      3.938589      5.821798
  H      -6.337518      4.899244      5.786398
  H      -2.111829      5.386661     10.779749
  O      -2.722027      4.667260     11.039360
  H      -2.756905      4.688179     11.998875
  H      -4.301000      4.927522     10.055013
  O      -4.891720      5.083685      9.293823
  H      -5.487304      4.315312      9.252529
  H      -0.987236      7.681264     10.931028
  O      -1.320743      7.021675     10.317205
  H      -0.813039      7.162151      9.488956
  H      -3.797959      9.022889      6.655559
  O      -3.862362      8.964567      5.692061
  H      -4.008172      8.015221      5.540134
  H       0.809461      7.171318      7.492087
  O      -0.093631      7.243623      7.856916
  H      -0.645918      7.215818      7.031677
  S      -4.299869      8.617940      9.130280
  H      -3.138365      8.070048      9.557084
  H      -4.880477      7.403229      9.015736
33
Coordinates from ORCA-job neb_268_274_CI_MEP.QMRegion E -2131.013310953976
  H      -1.547423      4.492919      7.822842
  O      -0.641084      4.598078      8.188406
  H      -0.397397      5.538513      8.119216
  H      -3.769762      4.611155      8.048329
  O      -3.187908      4.240411      7.342244
  H      -3.372695      3.282373      7.404301
  H      -3.714266      5.320592      5.785461
  O      -3.663612      6.102662      5.214184
  H      -2.714699      6.367268      5.307225
  H      -6.132981      3.187691      7.396817
  O      -6.019935      2.715266      8.256966
  H      -6.581201      1.915791      8.164869
  H      -5.605992      3.630913      5.268483
  O      -6.372834      3.906996      5.823242
  H      -6.394358      4.863996      5.733942
  H      -2.099075      5.413136     10.772848
  O      -2.633500      4.659249     11.095226
  H      -2.544631      4.663541     12.051162
  H      -4.252081      4.834971     10.151678
  O      -4.834509      4.976856      9.382638
  H      -5.407980      4.192916      9.326057
  H      -1.534792      7.894368     10.652666
  O      -1.518200      7.055900     10.186437
  H      -0.944154      7.208611      9.406556
  H      -3.795637      9.058187      6.620873
  O      -3.852622      8.979686      5.659099
  H      -3.971116      8.022760      5.526054
  H       0.833776      7.187968      7.499684
  O      -0.074840      7.254781      7.851029
  H      -0.616480      7.214364      7.020289
  S      -4.735419      8.494101      8.920821
  H      -3.808269      7.655534      9.427408
  H      -5.421388      7.463489      8.389385
33
Coordinates from ORCA-job neb_268_274_CI_MEP.QMRegion E -2131.012127365298
  H      -1.578275      4.484814      7.801593
  O      -0.672619      4.586683      8.167279
  H      -0.433172      5.528935      8.104954
  H      -3.814802      4.612607      8.026348
  O      -3.234236      4.245609      7.317433
  H      -3.410033      3.286325      7.381015
  H      -3.745572      5.331688      5.772173
  O      -3.682830      6.120210      5.210285
  H      -2.730605      6.370580      5.302900
  H      -6.159649      3.182867      7.369740
  O      -6.037072      2.718383      8.231924
  H      -6.597305      1.916596      8.148905
  H      -5.639816      3.617143      5.239736
  O      -6.422255      3.878848      5.779364
  H      -6.472963      4.833099      5.674216
  H      -2.160116      5.418492     10.731546
  O      -2.683111      4.657932     11.062882
  H      -2.594856      4.677042     12.018743
  H      -4.286083      4.801296     10.130829
  O      -4.875421      4.975610      9.372753
  H      -5.459329      4.200522      9.298265
  H      -1.783288      7.889754     10.494516
  O      -1.487851      7.018611     10.220175
  H      -0.950715      7.176639      9.416659
  H      -3.780029      9.053751      6.609437
  O      -3.869461      8.983532      5.650434
  H      -3.990972      8.027055      5.511910
  H       0.812170      7.181924      7.500805
  O      -0.097475      7.244041      7.849180
  H      -0.635544      7.204978      7.015898
  S      -4.899405      8.475499      8.870410
  H      -4.213918      7.491654      9.484387
  H      -5.576232      7.570534      8.136877
33
Coordinates from ORCA-job neb_268_274_CI_MEP.QMRegion E -2131.012283383063
  H      -1.570901      4.487530      7.806309
  O      -0.665046      4.586642      8.169924
  H      -0.424944      5.529392      8.113289
  H      -3.813911      4.619587      8.030634
  O      -3.234621      4.252609      7.321890
  H      -3.409323      3.293052      7.384640
  H      -3.743922      5.350012      5.784198
  O      -3.677630      6.140030      5.224531
  H      -2.720911      6.379450      5.313592
  H      -6.150480      3.185917      7.373304
  O      -6.028617      2.724354      8.237070
  H      -6.587001      1.921360      8.155209
  H      -5.634098      3.613993      5.239622
  O      -6.420478      3.869792      5.776965
  H      -6.490450      4.820870      5.656299
  H      -2.154686      5.439960     10.702163
  O      -2.670337      4.674875     11.043920
  H      -2.587509      4.713182     11.999779
  H      -4.264234      4.784557     10.137095
  O      -4.867719      4.983309      9.394629
  H      -5.464039      4.218520      9.313128
  H      -1.999283      7.826261     10.307049
  O      -1.451011      7.038253     10.266493
  H      -0.914540      7.163615      9.457134
  H      -3.696672      9.056158      6.629396
  O      -3.853458      8.992229      5.679922
  H      -3.970334      8.034715      5.537658
  H       0.825906      7.181719      7.509561
  O      -0.083735      7.238657      7.859243
  H      -0.621909      7.201694      7.027515
  S      -4.978548      8.449187      8.880999
  H      -4.596923      7.368662      9.593526
  H      -5.553221      7.654043      7.956303
33
Coordinates from ORCA-job neb_268_274_CI_MEP.QMRegion E -2131.012519737337
  H      -1.615081      4.454491      7.758804
  O      -0.715080      4.556906      8.133258
  H      -0.481530      5.502590      8.080908
  H      -3.871810      4.600286      7.970499
  O      -3.292143      4.233166      7.262931
  H      -3.456273      3.272615      7.336521
  H      -3.776777      5.322617      5.736028
  O      -3.697767      6.122641      5.192512
  H      -2.742372      6.356772      5.287493
  H      -6.190324      3.160341      7.319197
  O      -6.055475      2.714398      8.188427
  H      -6.610397      1.905786      8.120849
  H      -5.685149      3.577261      5.190739
  O      -6.492508      3.811291      5.706669
  H      -6.586956      4.759433      5.581240
  H      -2.229408      5.413991     10.640952
  O      -2.741347      4.647620     10.989369
  H      -2.672456      4.701518     11.946030
  H      -4.322767      4.748468     10.080545
  O      -4.931739      4.960315      9.342474
  H      -5.528012      4.198606      9.250089
  H      -2.185043      7.732736     10.143111
  O      -1.564646      7.008258     10.207444
  H      -0.983582      7.126785      9.424411
  H      -3.728895      9.016170      6.591198
  O      -3.887710      8.964210      5.642255
  H      -4.007765      8.008381      5.489159
  H       0.793472      7.150453      7.498170
  O      -0.116650      7.199747      7.846631
  H      -0.650858      7.173380      7.009971
  S      -5.086499      8.383468      8.847143
  H      -4.858536      7.234928      9.519077
  H      -5.611393      7.686528      7.819898
33
Coordinates from ORCA-job neb_268_274_CI_MEP.QMRegion E -2131.013564029779
  H      -1.629732      4.446004      7.744690
  O      -0.731129      4.545046      8.121148
  H      -0.500641      5.492317      8.082647
  H      -3.904220      4.596154      7.947082
  O      -3.321282      4.232214      7.242019
  H      -3.477506      3.270596      7.317249
  H      -3.787005      5.320816      5.721863
  O      -3.698407      6.126891      5.187427
  H      -2.741611      6.352218      5.286520
  H      -6.203970      3.147558      7.291475
  O      -6.062456      2.712037      8.164864
  H      -6.614572      1.900703      8.107945
  H      -5.711532      3.551588      5.163360
  O      -6.533124      3.761573      5.666807
  H      -6.666525      4.702686      5.523300
  H      -2.308754      5.419424     10.584188
  O      -2.785251      4.637860     10.955400
  H      -2.727980      4.726269     11.909572
  H      -4.364047      4.721512     10.062067
  O      -4.978483      4.939690      9.332167
  H      -5.568411      4.170764      9.222778
  H      -2.484706      7.612050      9.839956
  O      -1.766802      7.022407     10.097143
  H      -1.102551      7.142400      9.390667
  H      -3.714697      9.009566      6.570961
  O      -3.899027      8.958213      5.627411
  H      -4.010124      8.001353      5.471333
  H       0.788785      7.139775      7.511988
  O      -0.124681      7.182335      7.851806
  H      -0.648955      7.160281      7.008760
  S      -5.173154      8.271134      8.840451
  H      -5.142805      7.067434      9.458109
  H      -5.541467      7.677768      7.687090
33
Coordinates from ORCA-job neb_268_274_CI_MEP.QMRegion E -2131.014066099275
  H      -1.561480      4.529878      7.802230
  O      -0.656350      4.618922      8.162304
  H      -0.425048      5.566604      8.133044
  H      -3.840086      4.577654      8.031905
  O      -3.260682      4.251508      7.308025
  H      -3.403949      3.285650      7.354667
  H      -3.780208      5.368398      5.777201
  O      -3.702730      6.168496      5.232998
  H      -2.740969      6.388483      5.315960
  H      -6.176470      3.118148      7.351322
  O      -6.043999      2.668722      8.219307
  H      -6.589381      1.854188      8.140915
  H      -5.684778      3.516015      5.207060
  O      -6.503136      3.691369      5.730099
  H      -6.723841      4.605954      5.536147
  H      -2.393313      5.499358     10.465597
  O      -2.682607      4.694151     10.957829
  H      -2.559958      4.897772     11.887369
  H      -4.317756      4.632502     10.186241
  O      -4.938328      4.790604      9.445608
  H      -5.484849      3.990322      9.326243
  H      -3.056922      7.431016      9.282599
  O      -2.271774      7.101192      9.744858
  H      -1.517120      7.328464      9.174873
  H      -3.784872      9.127392      6.569359
  O      -3.909719      9.005858      5.623456
  H      -4.000670      8.039446      5.522781
  H       0.778558      7.280591      7.548837
  O      -0.145537      7.298132      7.853354
  H      -0.634529      7.217636      6.993894
  S      -5.528172      7.865541      8.536524
  H      -5.513127      6.634502      9.115943
  H      -5.577841      7.321457      7.304310
