27
Coordinates from ORCA-job neb_88_242_CI_MEP.QMRegion E -1988.354091687071
  H      -5.011031      5.834869     -5.498207
  O      -4.457264      5.030471     -5.548993
  H      -3.666033      5.237359     -6.079685
  H      -5.896759      4.702089     -2.831942
  O      -6.799811      4.598620     -3.202512
  H      -6.656173      3.871541     -3.853442
  H      -5.433626      3.473676     -5.520959
  O      -5.973154      2.771971     -5.112764
  H      -5.310057      2.189281     -4.675799
  H      -7.458783      1.631788     -5.219952
  O      -8.023727      0.892061     -4.944768
  H      -8.912236      1.299532     -4.772851
  H     -10.210354      3.060470     -4.815880
  O     -10.301097      2.162182     -4.461007
  H     -10.460212      2.355037     -3.509178
  H      -5.759652      7.477340     -4.084711
  O      -6.285367      6.889934     -4.669336
  H      -6.533708      6.118689     -4.101407
  H      -9.659953      5.840333     -4.422872
  O     -10.265703      5.074646     -4.403413
  H     -11.043048      5.406611     -4.869667
  H      -9.010772      8.108594     -3.887874
  O      -8.902015      7.565507     -4.674516
  H      -7.924436      7.451656     -4.759583
  S     -11.577071      7.249119     -6.833351
  H     -10.463647      7.692096     -6.205999
  H     -10.855037      6.523575     -7.711358
27
Coordinates from ORCA-job neb_88_242_CI_MEP.QMRegion E -1988.349808122849
  H      -5.032954      5.898119     -5.486974
  O      -4.481980      5.092149     -5.544905
  H      -3.689857      5.293795     -6.076518
  H      -5.907994      4.757763     -2.810262
  O      -6.815511      4.655484     -3.171419
  H      -6.672046      3.935034     -3.828881
  H      -5.446690      3.523948     -5.484533
  O      -5.979695      2.821631     -5.067898
  H      -5.313210      2.233906     -4.644501
  H      -7.456572      1.671882     -5.188175
  O      -8.028157      0.930136     -4.931736
  H      -8.914363      1.339727     -4.760463
  H     -10.253383      3.094345     -4.802743
  O     -10.322334      2.196274     -4.446381
  H     -10.464957      2.386781     -3.489255
  H      -5.801855      7.530977     -4.088296
  O      -6.340764      6.943253     -4.659998
  H      -6.567025      6.175009     -4.080340
  H      -9.788428      5.964367     -4.342502
  O     -10.338737      5.152069     -4.302925
  H     -11.221354      5.460652     -4.534643
  H      -9.129247      8.163124     -3.831845
  O      -8.994720      7.573091     -4.580115
  H      -8.016090      7.484380     -4.649038
  S     -10.497091      6.471194     -7.968744
  H      -9.402797      6.547684     -7.185174
  H     -10.748547      5.194327     -7.599692
27
Coordinates from ORCA-job neb_88_242_CI_MEP.QMRegion E -1988.349186456418
  H      -5.017758      5.849557     -5.491882
  O      -4.465309      5.044180     -5.546178
  H      -3.673539      5.249697     -6.076893
  H      -5.894456      4.717472     -2.818224
  O      -6.799281      4.611456     -3.184896
  H      -6.652974      3.886455     -3.837614
  H      -5.439923      3.481679     -5.500657
  O      -5.976381      2.782032     -5.084944
  H      -5.309731      2.197463     -4.655088
  H      -7.457827      1.641244     -5.197830
  O      -8.023941      0.898423     -4.932311
  H      -8.912579      1.299967     -4.755206
  H     -10.271203      3.022023     -4.806554
  O     -10.320578      2.135293     -4.421725
  H     -10.452664      2.351757     -3.468907
  H      -5.785327      7.495066     -4.097962
  O      -6.313308      6.897030     -4.668790
  H      -6.538231      6.129994     -4.086518
  H      -9.793884      5.908059     -4.371808
  O     -10.349219      5.095234     -4.331309
  H     -11.248268      5.417451     -4.436324
  H      -9.081973      8.037082     -3.766757
  O      -8.989503      7.493395     -4.554958
  H      -8.015616      7.406416     -4.669970
  S     -10.118070      6.066839     -8.239428
  H      -8.958028      6.121680     -7.554325
  H     -10.684250      5.288347     -7.294392
27
Coordinates from ORCA-job neb_88_242_CI_MEP.QMRegion E -1988.349289571571
  H      -5.019983      5.843026     -5.500130
  O      -4.467209      5.037345     -5.554061
  H      -3.675348      5.243778     -6.084218
  H      -5.893270      4.712800     -2.825754
  O      -6.798529      4.604777     -3.190900
  H      -6.652995      3.880133     -3.843893
  H      -5.439640      3.476549     -5.508377
  O      -5.978087      2.775578     -5.096852
  H      -5.312747      2.192234     -4.663451
  H      -7.469482      1.635815     -5.206222
  O      -8.028935      0.890436     -4.935097
  H      -8.920824      1.283717     -4.756903
  H     -10.324077      2.973753     -4.827182
  O     -10.339680      2.099841     -4.413490
  H     -10.458726      2.338991     -3.464787
  H      -5.789100      7.491526     -4.111550
  O      -6.312896      6.890495     -4.682491
  H      -6.538908      6.125974     -4.098225
  H      -9.823397      5.898083     -4.379021
  O     -10.380780      5.084533     -4.360371
  H     -11.284162      5.411507     -4.387610
  H      -9.050194      7.970090     -3.710997
  O      -9.009325      7.467324     -4.530122
  H      -8.044479      7.379911     -4.700117
  S      -9.895035      5.845496     -8.232532
  H      -8.649110      5.452107     -7.900370
  H     -10.362204      5.535099     -7.004780
27
Coordinates from ORCA-job neb_88_242_CI_MEP.QMRegion E -1988.349190784578
  H      -5.011887      5.799082     -5.513235
  O      -4.454771      4.995114     -5.556658
  H      -3.664692      5.203906     -6.088036
  H      -5.886188      4.678096     -2.841258
  O      -6.789721      4.566657     -3.208904
  H      -6.643949      3.843283     -3.862699
  H      -5.435704      3.448755     -5.538317
  O      -5.974591      2.743168     -5.134109
  H      -5.309118      2.169225     -4.688284
  H      -7.467567      1.618869     -5.214144
  O      -8.027450      0.875085     -4.938780
  H      -8.918250      1.267789     -4.752580
  H     -10.310193      2.948163     -4.814710
  O     -10.333668      2.074391     -4.400297
  H     -10.452335      2.318410     -3.452770
  H      -5.765818      7.465837     -4.123330
  O      -6.276906      6.857358     -4.697495
  H      -6.510811      6.097181     -4.112121
  H      -9.784087      5.848085     -4.419474
  O     -10.344577      5.035614     -4.399289
  H     -11.245501      5.362164     -4.474498
  H      -8.998460      7.899990     -3.774654
  O      -8.980412      7.404301     -4.599080
  H      -8.019530      7.314580     -4.789113
  S      -9.465656      5.821450     -8.144114
  H      -8.669722      4.733788     -8.188249
  H      -9.916997      5.501734     -6.912546
27
Coordinates from ORCA-job neb_88_242_CI_MEP.QMRegion E -1988.349511288918
  H      -4.999429      5.740753     -5.532961
  O      -4.435686      4.941368     -5.560732
  H      -3.649142      5.154331     -6.095099
  H      -5.871109      4.629611     -2.853088
  O      -6.771928      4.519143     -3.226373
  H      -6.625960      3.798920     -3.884062
  H      -5.441453      3.409121     -5.576330
  O      -5.974840      2.703175     -5.165459
  H      -5.303558      2.141379     -4.712662
  H      -7.464527      1.595209     -5.227429
  O      -8.022705      0.851361     -4.947054
  H      -8.912592      1.240517     -4.749612
  H     -10.277157      2.913653     -4.799465
  O     -10.322003      2.039575     -4.386698
  H     -10.441408      2.287924     -3.440661
  H      -5.737087      7.427202     -4.120355
  O      -6.237052      6.810403     -4.695092
  H      -6.469857      6.048309     -4.111191
  H      -9.720614      5.779880     -4.476052
  O     -10.289781      4.973768     -4.431386
  H     -11.183150      5.302867     -4.563004
  H      -8.998710      7.891089     -3.975229
  O      -8.918545      7.317064     -4.742790
  H      -7.943500      7.223047     -4.857727
  S      -8.831657      5.491367     -7.917689
  H      -8.632197      4.191538     -8.221490
  H      -9.536096      5.182080     -6.807696
27
Coordinates from ORCA-job neb_88_242_CI_MEP.QMRegion E -1988.350043815061
  H      -5.005820      5.682144     -5.554357
  O      -4.431389      4.892422     -5.559128
  H      -3.648005      5.113769     -6.093726
  H      -5.861552      4.578562     -2.880776
  O      -6.763525      4.474860     -3.251782
  H      -6.630264      3.759038     -3.916685
  H      -5.522606      3.344989     -5.659970
  O      -6.013870      2.639782     -5.203873
  H      -5.312643      2.117993     -4.749602
  H      -7.500856      1.563518     -5.249305
  O      -8.062566      0.825784     -4.955922
  H      -8.948854      1.222571     -4.764615
  H     -10.263643      2.946069     -4.810669
  O     -10.356280      2.063472     -4.422400
  H     -10.476942      2.291487     -3.472964
  H      -5.731576      7.393289     -4.102934
  O      -6.235660      6.782309     -4.679858
  H      -6.462740      6.008030     -4.108330
  H      -9.683846      5.782306     -4.553213
  O     -10.243948      4.970741     -4.491687
  H     -11.127140      5.275094     -4.717395
  H      -9.038828      7.928813     -4.111140
  O      -8.877803      7.312696     -4.831770
  H      -7.892967      7.220928     -4.846902
  S      -8.017700      4.709776     -7.605127
  H      -8.279501      3.419621     -7.907739
  H      -8.999499      4.749755     -6.677816
