27
Coordinates from ORCA-job neb_8_82_CI_MEP.QMRegion E -1988.357713689026
  H       2.228241      5.824298     -1.200574
  O       3.168746      5.530671     -1.071065
  H       3.327760      4.936446     -1.826000
  H       4.279686      5.585036      0.398341
  O       4.655912      5.664226      1.291297
  H       4.011086      6.269338      1.714544
  H       3.769557      7.189309     -1.390817
  O       3.869605      8.149439     -1.560584
  H       4.000225      8.164578     -2.518299
  H       6.062849      1.820672     -0.466180
  O       6.656159      2.043636     -1.200555
  H       7.458382      1.517809     -1.002344
  H       4.561406      4.025626      1.756451
  O       4.365383      3.099940      2.039926
  H       5.084219      2.532320      1.742897
  H       3.930726      5.989070     -4.023013
  O       4.384836      6.832189     -4.191961
  H       5.316744      6.589291     -4.175351
  H       4.700466      8.829965      0.001679
  O       4.953023      8.963753      0.934353
  H       5.716714      8.384014      1.027464
  H       5.290833      4.170694     -3.168161
  O       6.248443      4.158454     -3.054138
  H       6.404701      3.499812     -2.348336
  S       7.668864      6.511016     -0.390253
  H       6.841692      5.958339      0.523102
  H       7.002551      5.933637     -1.414359
27
Coordinates from ORCA-job neb_8_82_CI_MEP.QMRegion E -1988.353732051463
  H       2.167079      5.727073     -1.228317
  O       3.099004      5.411373     -1.083277
  H       3.272877      4.826377     -1.842339
  H       4.263627      5.477118      0.347981
  O       4.617224      5.577945      1.246485
  H       3.961345      6.185972      1.644948
  H       3.663241      7.014024     -1.430496
  O       3.810649      7.965123     -1.629370
  H       3.927703      7.949360     -2.590375
  H       6.042496      1.792176     -0.519656
  O       6.653250      2.021214     -1.236137
  H       7.445015      1.479469     -1.036087
  H       4.526328      3.942708      1.726717
  O       4.325442      3.021453      2.023265
  H       5.028680      2.439545      1.713937
  H       3.889459      5.934347     -4.096512
  O       4.349881      6.770031     -4.288316
  H       5.277905      6.528587     -4.194473
  H       4.578886      8.677482     -0.068071
  O       4.816615      8.967791      0.832014
  H       5.663565      8.530300      0.990000
  H       5.260632      4.151614     -3.262423
  O       6.215291      4.148602     -3.128237
  H       6.361867      3.500704     -2.413940
  S       8.089786      7.971681      0.419730
  H       8.092566      6.934749      1.280951
  H       7.598399      7.208986     -0.578951
27
Coordinates from ORCA-job neb_8_82_CI_MEP.QMRegion E -1988.350984085283
  H       2.173490      5.742036     -1.226775
  O       3.108286      5.433819     -1.084565
  H       3.282652      4.851145     -1.845684
  H       4.275629      5.510163      0.352859
  O       4.622655      5.616335      1.253321
  H       3.944263      6.200761      1.652071
  H       3.675252      7.046213     -1.400641
  O       3.830575      8.000421     -1.579471
  H       3.956335      7.999338     -2.539614
  H       6.041769      1.800269     -0.522030
  O       6.652428      2.029556     -1.238494
  H       7.444650      1.489698     -1.036632
  H       4.541130      3.963222      1.720812
  O       4.337380      3.042819      2.015150
  H       5.040123      2.459768      1.706451
  H       3.899308      5.969302     -4.056213
  O       4.375481      6.801369     -4.219577
  H       5.297319      6.544604     -4.104381
  H       4.619882      8.663543     -0.019088
  O       4.861841      8.914976      0.892510
  H       5.625221      8.360742      1.086712
  H       5.255611      4.155591     -3.273312
  O       6.210470      4.164422     -3.140584
  H       6.364411      3.528866     -2.417330
  S       8.413011      8.474094      0.554649
  H       8.280606      7.538831      1.517276
  H       7.822689      7.687018     -0.368577
27
Coordinates from ORCA-job neb_8_82_CI_MEP.QMRegion E -1988.350613997466
  H       2.207605      5.787991     -1.207589
  O       3.145486      5.490327     -1.067782
  H       3.316921      4.906282     -1.828895
  H       4.324075      5.583746      0.389499
  O       4.666234      5.696166      1.291357
  H       3.950094      6.230251      1.697547
  H       3.732719      7.131552     -1.336143
  O       3.882635      8.089154     -1.496621
  H       4.015995      8.099694     -2.455699
  H       6.072314      1.835608     -0.500859
  O       6.673071      2.060183     -1.227369
  H       7.468237      1.525417     -1.025754
  H       4.592167      4.010817      1.733388
  O       4.375541      3.093051      2.019659
  H       5.078085      2.506482      1.717611
  H       3.943267      6.035475     -3.986492
  O       4.432802      6.866008     -4.107706
  H       5.350246      6.594836     -3.989465
  H       4.714293      8.722172      0.078678
  O       4.993527      8.833005      1.007830
  H       5.524810      8.044850      1.167959
  H       5.284042      4.187823     -3.245895
  O       6.241565      4.206676     -3.132406
  H       6.412516      3.590860     -2.396108
  S       8.804137      8.669270      0.617237
  H       8.291254      8.044060      1.697140
  H       7.873874      8.130078     -0.197472
27
Coordinates from ORCA-job neb_8_82_CI_MEP.QMRegion E -1988.351821592074
  H       2.199437      5.796534     -1.202859
  O       3.139827      5.503575     -1.064923
  H       3.311214      4.916230     -1.823175
  H       4.288514      5.590721      0.397113
  O       4.635408      5.707399      1.297654
  H       3.910268      6.225171      1.710761
  H       3.714377      7.153585     -1.339523
  O       3.856597      8.112342     -1.499220
  H       3.970026      8.124914     -2.461093
  H       6.053576      1.842013     -0.495301
  O       6.653715      2.069074     -1.221655
  H       7.452374      1.542018     -1.016885
  H       4.575185      4.017058      1.741758
  O       4.358998      3.099108      2.025252
  H       5.065156      2.515340      1.726500
  H       3.908297      6.059001     -3.977675
  O       4.388508      6.895441     -4.092873
  H       5.307380      6.635003     -3.961344
  H       4.742257      8.693498      0.079860
  O       5.068711      8.708750      0.999261
  H       5.428381      7.817466      1.108605
  H       5.256172      4.208332     -3.252861
  O       6.213437      4.220914     -3.136189
  H       6.377519      3.614049     -2.391541
  S       8.791319      8.895435      0.764363
  H       8.152702      8.525756      1.892993
  H       7.685174      8.674795      0.025742
27
Coordinates from ORCA-job neb_8_82_CI_MEP.QMRegion E -1988.353460632994
  H       2.198457      5.798908     -1.197384
  O       3.139585      5.508342     -1.057560
  H       3.312529      4.917175     -1.812186
  H       4.271739      5.583804      0.416141
  O       4.619584      5.697838      1.316746
  H       3.896240      6.216875      1.731408
  H       3.710935      7.162580     -1.319826
  O       3.852386      8.122404     -1.473688
  H       3.961285      8.139410     -2.436474
  H       6.047975      1.843970     -0.487770
  O       6.645600      2.073111     -1.215743
  H       7.446869      1.550732     -1.010869
  H       4.563326      4.012654      1.756529
  O       4.349209      3.092596      2.034925
  H       5.059217      2.512977      1.737621
  H       3.890166      6.086684     -3.947273
  O       4.368406      6.925893     -4.048169
  H       5.285686      6.668561     -3.900571
  H       4.768439      8.643567      0.077288
  O       5.109014      8.649814      0.992563
  H       5.432112      7.742658      1.102211
  H       5.241977      4.219062     -3.257297
  O       6.198796      4.228855     -3.135911
  H       6.357396      3.627547     -2.385921
  S       8.581217      9.374022      1.020674
  H       8.109869      9.023866      2.234929
  H       7.340416      9.283033      0.493872
27
Coordinates from ORCA-job neb_8_82_CI_MEP.QMRegion E -1988.354862392625
  H       2.192297      5.769141     -1.209478
  O       3.128405      5.466546     -1.063452
  H       3.304462      4.883428     -1.824520
  H       4.281759      5.543080      0.391113
  O       4.628253      5.662205      1.291676
  H       3.906976      6.184692      1.703217
  H       3.707914      7.103360     -1.330504
  O       3.873125      8.059742     -1.483793
  H       4.046704      8.063882     -2.437446
  H       6.064540      1.828035     -0.498165
  O       6.664591      2.053429     -1.224942
  H       7.460961      1.520372     -1.023431
  H       4.581455      3.975893      1.740029
  O       4.357417      3.062576      2.029367
  H       5.055493      2.469123      1.729523
  H       3.965807      6.033806     -3.959100
  O       4.478883      6.853300     -4.052257
  H       5.384400      6.558337     -3.900123
  H       4.820659      8.546695      0.039239
  O       5.136162      8.573341      0.965320
  H       5.476555      7.676131      1.098073
  H       5.272973      4.163683     -3.248683
  O       6.229475      4.193461     -3.130954
  H       6.405040      3.579757     -2.393869
  S       7.856921     10.613890      1.567163
  H       7.987628      9.962959      2.741261
  H       6.751445      9.895777      1.242041
