30
Coordinates from ORCA-job neb_250_349_CI_MEP.QMRegion E -2059.683138209195
  H      -3.484635      6.402264     -0.508344
  O      -3.255967      7.066643     -1.212060
  H      -3.090887      7.912078     -0.746785
  H      -3.814274      5.859395     -2.731793
  O      -4.209931      5.024483     -3.016207
  H      -4.036772      4.953868     -3.981466
  H      -5.916061      4.714652     -3.041857
  O      -6.827538      4.566797     -3.383272
  H      -6.684187      3.856676     -4.052002
  H      -7.553429      3.749165     -2.061133
  O      -7.902798      3.230654     -1.299336
  H      -7.764910      2.305072     -1.597210
  H     -10.366409      4.587348     -2.774682
  O     -10.422150      4.486159     -1.806132
  H      -9.619821      3.987922     -1.560065
  H      -5.739704      7.418395     -4.406300
  O      -6.261225      6.809979     -4.967622
  H      -6.545130      6.092344     -4.361788
  H      -4.149414      9.165041     -3.271341
  O      -4.751733      8.406311     -3.199164
  H      -4.432104      7.932988     -2.412126
  H      -9.707617      5.633175     -4.822204
  O     -10.267666      4.830147     -4.653050
  H     -11.094994      4.998262     -5.111060
  H      -9.163622      7.486138     -4.022872
  O      -9.048086      7.187696     -4.945128
  H      -8.081119      7.218070     -5.082518
  S      -9.492795      7.652621     -1.666750
  H      -8.218967      7.367539     -1.329303
  H      -9.884318      6.335270     -1.572242
30
Coordinates from ORCA-job neb_250_349_CI_MEP.QMRegion E -2059.681244936276
  H      -3.498470      6.413928     -0.526380
  O      -3.282736      7.078980     -1.233310
  H      -3.107987      7.922976     -0.767599
  H      -3.833543      5.867335     -2.742301
  O      -4.222435      5.028252     -3.023911
  H      -4.046069      4.954493     -3.988653
  H      -5.941100      4.751323     -3.080982
  O      -6.852022      4.609313     -3.425922
  H      -6.710830      3.889765     -4.084369
  H      -7.552249      3.758441     -2.080775
  O      -7.872393      3.225264     -1.319004
  H      -7.724376      2.303396     -1.627652
  H     -10.419724      4.393960     -2.798187
  O     -10.544020      4.026526     -1.907418
  H      -9.663364      3.705044     -1.642907
  H      -5.761491      7.451554     -4.427782
  O      -6.266285      6.844333     -5.004651
  H      -6.572022      6.127588     -4.407421
  H      -4.248890      9.218015     -3.230681
  O      -4.879305      8.485330     -3.131559
  H      -4.510429      7.969685     -2.393923
  H      -9.742304      5.675346     -4.867013
  O     -10.280455      4.867749     -4.680250
  H     -11.121324      5.017697     -5.119752
  H      -9.171277      7.590579     -4.130750
  O      -9.068861      7.263525     -5.041633
  H      -8.102325      7.274655     -5.180622
  S      -9.307898      7.819856     -1.725711
  H      -7.983971      7.658455     -1.525718
  H      -9.580637      6.509875     -1.512483
30
Coordinates from ORCA-job neb_250_349_CI_MEP.QMRegion E -2059.681510642883
  H      -3.499435      6.414840     -0.528613
  O      -3.284621      7.080629     -1.235148
  H      -3.108196      7.924026     -0.768768
  H      -3.834890      5.864475     -2.745332
  O      -4.226203      5.025987     -3.024638
  H      -4.051306      4.950813     -3.989725
  H      -5.951206      4.749952     -3.082138
  O      -6.861684      4.613391     -3.429299
  H      -6.723345      3.891483     -4.085762
  H      -7.574627      3.761642     -2.076078
  O      -7.879198      3.225108     -1.311115
  H      -7.724403      2.305209     -1.625017
  H     -10.533634      4.192563     -2.767572
  O     -10.628123      3.561968     -2.036224
  H      -9.725314      3.462972     -1.685068
  H      -5.765895      7.449825     -4.428741
  O      -6.268890      6.844177     -5.008339
  H      -6.577686      6.126046     -4.413706
  H      -4.258602      9.219192     -3.226427
  O      -4.889749      8.487948     -3.121205
  H      -4.508482      7.966278     -2.393618
  H      -9.769355      5.700699     -4.855786
  O     -10.313473      4.905380     -4.646512
  H     -11.126518      5.022604     -5.144760
  H      -9.167700      7.652670     -4.181209
  O      -9.065366      7.294378     -5.078639
  H      -8.097554      7.286438     -5.209407
  S      -9.218875      7.995538     -1.761283
  H      -7.886412      7.861306     -1.604066
  H      -9.450812      6.698357     -1.465232
30
Coordinates from ORCA-job neb_250_349_CI_MEP.QMRegion E -2059.681506145114
  H      -3.488549      6.420093     -0.520477
  O      -3.268459      7.086675     -1.224729
  H      -3.089445      7.929531     -0.757671
  H      -3.794528      5.883528     -2.740952
  O      -4.196876      5.051590     -3.024014
  H      -4.020568      4.972785     -3.987935
  H      -5.917182      4.775909     -3.080416
  O      -6.829353      4.643574     -3.424576
  H      -6.699885      3.921097     -4.081160
  H      -7.556214      3.780878     -2.078288
  O      -7.862007      3.236034     -1.319822
  H      -7.705960      2.318156     -1.639239
  H     -10.541235      4.163992     -2.712852
  O     -10.616383      3.484617     -2.024753
  H      -9.713959      3.416768     -1.664875
  H      -5.711678      7.485910     -4.409433
  O      -6.218644      6.885269     -4.990944
  H      -6.536309      6.171236     -4.396427
  H      -4.250895      9.251307     -3.185133
  O      -4.885597      8.523563     -3.070160
  H      -4.484067      7.986092     -2.364520
  H      -9.709757      5.739941     -4.776942
  O     -10.263491      4.946562     -4.593352
  H     -11.066834      5.092503     -5.100072
  H      -9.087549      7.757663     -4.153278
  O      -9.006592      7.355545     -5.033833
  H      -8.041799      7.343812     -5.184346
  S      -8.941553      8.287145     -1.769322
  H      -7.596899      8.189374     -1.739890
  H      -9.110757      7.009531     -1.367408
30
Coordinates from ORCA-job neb_250_349_CI_MEP.QMRegion E -2059.681557548858
  H      -3.482624      6.416476     -0.513855
  O      -3.255401      7.085503     -1.214320
  H      -3.075346      7.926272     -0.743948
  H      -3.759612      5.892978     -2.737343
  O      -4.172204      5.067635     -3.024421
  H      -3.994752      4.986586     -3.987474
  H      -5.887593      4.787805     -3.075217
  O      -6.801014      4.659752     -3.417153
  H      -6.678828      3.937948     -4.075175
  H      -7.540157      3.790739     -2.078368
  O      -7.849422      3.240860     -1.325014
  H      -7.695213      2.324119     -1.648449
  H     -10.513887      4.176273     -2.702092
  O     -10.596363      3.483148     -2.028635
  H      -9.697885      3.416104     -1.658857
  H      -5.664361      7.504774     -4.386994
  O      -6.176261      6.910472     -4.970439
  H      -6.499920      6.198237     -4.376926
  H      -4.241353      9.266057     -3.145624
  O      -4.876707      8.539174     -3.023377
  H      -4.459668      7.989664     -2.334919
  H      -9.644915      5.776041     -4.721505
  O     -10.200802      4.977732     -4.573472
  H     -11.003308      5.155371     -5.071421
  H      -9.006826      7.844152     -4.113607
  O      -8.948731      7.409276     -4.980132
  H      -7.987257      7.389638     -5.150004
  S      -8.656083      8.591817     -1.807204
  H      -7.314020      8.489839     -1.903862
  H      -8.781924      7.363968     -1.261428
30
Coordinates from ORCA-job neb_250_349_CI_MEP.QMRegion E -2059.682443652621
  H      -3.481377      6.413444     -0.513670
  O      -3.250600      7.084062     -1.211968
  H      -3.069562      7.923085     -0.739063
  H      -3.745681      5.886740     -2.747370
  O      -4.168166      5.064842     -3.028530
  H      -3.996934      4.979126     -3.992625
  H      -5.888167      4.780055     -3.068419
  O      -6.799718      4.653555     -3.414178
  H      -6.676511      3.930887     -4.071221
  H      -7.548646      3.788924     -2.070711
  O      -7.851341      3.235783     -1.317538
  H      -7.694368      2.320787     -1.644486
  H     -10.529759      4.151026     -2.677910
  O     -10.603042      3.442389     -2.019889
  H      -9.705995      3.388437     -1.644747
  H      -5.654005      7.488508     -4.391987
  O      -6.173340      6.897488     -4.970767
  H      -6.495643      6.185950     -4.374627
  H      -4.219255      9.258493     -3.146660
  O      -4.850677      8.526551     -3.030136
  H      -4.436084      7.977680     -2.338285
  H      -9.641624      5.777553     -4.678185
  O     -10.198286      4.976928     -4.550191
  H     -10.991532      5.160184     -5.060718
  H      -8.967726      7.885827     -4.101864
  O      -8.938077      7.409938     -4.947675
  H      -7.981507      7.377573     -5.140333
  S      -8.379260      8.924569     -1.945685
  H      -7.050614      8.765812     -2.138018
  H      -8.477539      7.815209     -1.184632
30
Coordinates from ORCA-job neb_250_349_CI_MEP.QMRegion E -2059.682995264346
  H      -3.489280      6.385636     -0.493417
  O      -3.241128      7.060386     -1.185032
  H      -3.069151      7.893851     -0.702013
  H      -3.812873      5.827510     -2.732430
  O      -4.231857      5.002528     -3.006491
  H      -4.069741      4.923963     -3.973658
  H      -5.986674      4.696585     -3.014644
  O      -6.883309      4.583475     -3.394954
  H      -6.738026      3.866844     -4.054727
  H      -7.671711      3.751986     -2.019085
  O      -7.927449      3.197353     -1.251947
  H      -7.754826      2.289110     -1.588083
  H     -10.702186      4.043277     -2.617230
  O     -10.736660      3.291846     -2.006155
  H      -9.850641      3.284208     -1.604912
  H      -5.650472      7.391992     -4.371903
  O      -6.198835      6.820737     -4.940645
  H      -6.518745      6.103512     -4.348724
  H      -4.073181      9.170539     -3.187789
  O      -4.691463      8.421476     -3.105530
  H      -4.343561      7.912475     -2.346069
  H      -9.678794      5.785575     -4.560896
  O     -10.245089      4.986117     -4.500015
  H     -10.973827      5.175447     -5.097398
  H      -8.894974      8.006882     -4.076096
  O      -8.922667      7.426845     -4.851806
  H      -7.976714      7.341141     -5.078414
  S      -7.805383      9.571687     -2.357237
  H      -6.529362      9.184517     -2.620635
  H      -7.844417      8.859197     -1.213345
