45
Coordinates from ORCA-job neb_49_287_CI_MEP.QMRegion E -2416.356323524777
  H      -0.172013     -3.600907      3.700820
  O      -0.460650     -2.784209      4.136966
  H       0.202836     -2.632823      4.830852
  H      -2.373226     -3.710810      1.866989
  O      -2.413384     -4.633060      2.200234
  H      -1.478288     -4.875834      2.362988
  H      -0.972800      0.638662      5.960085
  O      -0.669199      0.123461      5.190296
  H       0.058824     -0.455917      5.490526
  H       2.059520     -3.652778      4.186981
  O       2.010953     -4.115880      5.049654
  H       2.600405     -3.575839      5.615583
  H       4.525016     -2.349474      5.582407
  O       4.198113     -2.846353      6.370342
  H       4.553069     -3.743641      6.225282
  H      -5.480383     -5.141584      1.736951
  O      -4.809663     -5.794258      1.418709
  H      -3.945433     -5.381716      1.592077
  H      -4.468921     -2.594792      4.074148
  O      -5.380183     -2.259481      3.927160
  H      -5.259680     -1.480379      3.335551
  H       2.327602     -5.734405      4.758630
  O       2.704972     -6.616272      4.518921
  H       1.969149     -7.164415      4.219251
  H       2.018290     -0.823486      5.135225
  O       1.451611     -1.322609      5.761437
  H       1.579825     -0.930916      6.640473
  H      -2.156307     -3.062949      4.520631
  O      -3.040349     -3.485701      4.604579
  H      -2.983491     -4.172210      3.914561
  H      -5.342201     -2.053625      6.943574
  O      -5.971898     -1.537570      6.426496
  H      -5.903646     -1.880714      5.503101
  H      -2.837904     -3.578022      7.750113
  O      -3.469531     -3.055960      7.237976
  H      -3.317775     -3.353768      6.312808
  H       0.576396      0.363689      8.836987
  O       0.485328     -0.405275      8.262042
  H      -0.483303     -0.493229      8.121161
  H      -2.631702     -1.497000      7.510014
  O      -2.208825     -0.631256      7.696006
  H      -2.856050     -0.131635      8.206791
  S      -0.240850     -4.057371      8.193559
  H       0.200303     -2.801035      8.426096
  H       0.317498     -4.092315      6.964829
45
Coordinates from ORCA-job neb_49_287_CI_MEP.QMRegion E -2416.349874233143
  H      -0.072615     -3.549247      3.757403
  O      -0.362249     -2.734356      4.193196
  H       0.321099     -2.550763      4.862738
  H      -2.337217     -3.643119      1.881857
  O      -2.376247     -4.561445      2.230094
  H      -1.438309     -4.809925      2.373656
  H      -0.947393      0.662335      5.973657
  O      -0.657329      0.129439      5.208880
  H       0.095707     -0.417597      5.511843
  H       2.163794     -3.578576      4.181607
  O       2.114535     -4.042000      5.043536
  H       2.664353     -3.485021      5.628822
  H       4.609439     -2.301483      5.603885
  O       4.310646     -2.791127      6.408668
  H       4.605365     -3.703531      6.233610
  H      -5.410343     -5.101618      1.736214
  O      -4.734587     -5.740688      1.402701
  H      -3.875022     -5.309059      1.559575
  H      -4.404604     -2.524431      4.072668
  O      -5.329167     -2.239204      3.916343
  H      -5.234552     -1.455852      3.324739
  H       2.395902     -5.643274      4.753899
  O       2.737090     -6.545751      4.525990
  H       1.985152     -7.078405      4.241851
  H       2.062080     -0.766723      5.172196
  O       1.501961     -1.256855      5.809192
  H       1.633151     -0.850698      6.684280
  H      -2.029756     -2.971079      4.554071
  O      -2.926642     -3.371457      4.624246
  H      -2.887585     -4.047620      3.920858
  H      -5.310297     -1.996396      6.876319
  O      -5.989556     -1.501256      6.393550
  H      -5.923270     -1.830429      5.466435
  H      -3.412854     -3.644929      7.692228
  O      -3.605524     -2.861955      7.163054
  H      -3.373520     -3.157791      6.250538
  H       0.690633      0.539053      8.828603
  O       0.670622     -0.264275      8.294281
  H      -0.282295     -0.460408      8.206209
  H      -2.570004     -1.431416      7.603335
  O      -2.087849     -0.617141      7.847835
  H      -2.742879     -0.061057      8.285508
  S      -1.880738     -5.764657      7.542370
  H      -1.388605     -5.125834      8.624634
  H      -1.070717     -5.083154      6.704116
45
Coordinates from ORCA-job neb_49_287_CI_MEP.QMRegion E -2416.346913496825
  H      -0.107548     -3.565774      3.743959
  O      -0.396649     -2.750634      4.180909
  H       0.282826     -2.580557      4.857545
  H      -2.351133     -3.656106      1.884414
  O      -2.391575     -4.574423      2.231511
  H      -1.454032     -4.823680      2.374057
  H      -0.951618      0.655940      5.974377
  O      -0.664179      0.124943      5.208007
  H       0.083883     -0.430702      5.508206
  H       2.136884     -3.602302      4.175410
  O       2.078248     -4.070199      5.034200
  H       2.621991     -3.515742      5.626493
  H       4.584169     -2.313766      5.598189
  O       4.281506     -2.803015      6.400907
  H       4.585519     -3.713307      6.230621
  H      -5.431922     -5.113419      1.734890
  O      -4.755785     -5.754049      1.405258
  H      -3.896101     -5.326021      1.569470
  H      -4.423401     -2.538263      4.077681
  O      -5.343137     -2.242143      3.914194
  H      -5.238695     -1.461112      3.320709
  H       2.375097     -5.672158      4.749408
  O       2.728403     -6.568804      4.518206
  H       1.981827     -7.106637      4.228769
  H       2.048497     -0.785785      5.167974
  O       1.482666     -1.279614      5.796895
  H       1.615198     -0.886947      6.677209
  H      -2.060941     -3.004334      4.563979
  O      -2.956859     -3.406664      4.646052
  H      -2.922295     -4.086951      3.947040
  H      -5.349361     -2.010680      6.862882
  O      -6.016322     -1.501747      6.379383
  H      -5.948453     -1.826355      5.450247
  H      -3.540522     -3.663190      7.748018
  O      -3.646093     -2.904862      7.169050
  H      -3.405884     -3.243575      6.271296
  H       0.660975      0.511464      8.826253
  O       0.633817     -0.288279      8.287347
  H      -0.319079     -0.486038      8.208503
  H      -2.610212     -1.453526      7.606876
  O      -2.128541     -0.639466      7.845032
  H      -2.782014     -0.076379      8.276421
  S      -2.086700     -6.233403      7.264589
  H      -2.211704     -5.600009      8.446823
  H      -1.350158     -5.243272      6.725557
45
Coordinates from ORCA-job neb_49_287_CI_MEP.QMRegion E -2416.345263333917
  H      -0.124904     -3.578890      3.761942
  O      -0.413344     -2.764990      4.202559
  H       0.264069     -2.610921      4.884911
  H      -2.368797     -3.667705      1.924417
  O      -2.410949     -4.582281      2.279967
  H      -1.471820     -4.836812      2.405080
  H      -0.963769      0.648404      5.986183
  O      -0.675128      0.114998      5.222083
  H       0.067652     -0.444547      5.529176
  H       2.128457     -3.602692      4.191802
  O       2.053971     -4.069219      5.049387
  H       2.592424     -3.519656      5.650400
  H       4.576486     -2.325570      5.605820
  O       4.274241     -2.808637      6.411403
  H       4.574105     -3.721069      6.246131
  H      -5.452872     -5.127044      1.740532
  O      -4.774714     -5.768662      1.417707
  H      -3.916814     -5.344341      1.597839
  H      -4.422517     -2.556254      4.110114
  O      -5.336437     -2.256669      3.933791
  H      -5.226713     -1.475631      3.340914
  H       2.353250     -5.678097      4.761813
  O       2.709642     -6.569981      4.520458
  H       1.962248     -7.108804      4.234518
  H       2.041240     -0.785112      5.211644
  O       1.469608     -1.276880      5.834814
  H       1.596399     -0.887650      6.717924
  H      -2.055469     -3.055390      4.644439
  O      -2.944722     -3.472350      4.749434
  H      -2.925135     -4.129703      4.027678
  H      -5.358213     -2.028329      6.916738
  O      -6.010021     -1.517370      6.416811
  H      -5.946565     -1.856691      5.494842
  H      -3.501062     -3.649131      7.896911
  O      -3.671362     -2.946856      7.266489
  H      -3.408606     -3.300843      6.382341
  H       0.655880      0.517241      8.862611
  O       0.636020     -0.298477      8.347358
  H      -0.313995     -0.510007      8.282030
  H      -2.622087     -1.474211      7.686011
  O      -2.140372     -0.658537      7.913155
  H      -2.795156     -0.088229      8.332837
  S      -1.481602     -6.231840      7.463699
  H      -2.509156     -5.787396      8.221130
  H      -1.605782     -5.214312      6.585043
45
Coordinates from ORCA-job neb_49_287_CI_MEP.QMRegion E -2416.345602893120
  H      -0.194234     -3.591451      3.682493
  O      -0.486290     -2.778201      4.123325
  H       0.183849     -2.634865      4.815018
  H      -2.400124     -3.673928      1.844895
  O      -2.445604     -4.595042      2.186773
  H      -1.510947     -4.846000      2.334950
  H      -0.992615      0.646636      5.955681
  O      -0.699521      0.133891      5.181064
  H       0.029930     -0.450635      5.474782
  H       2.051678     -3.636196      4.137018
  O       1.969263     -4.103946      4.994374
  H       2.516624     -3.556205      5.589780
  H       4.506190     -2.335048      5.562736
  O       4.179499     -2.834417      6.348099
  H       4.518795     -3.734224      6.187443
  H      -5.499613     -5.130298      1.709599
  O      -4.824577     -5.782806      1.396080
  H      -3.963651     -5.356065      1.550082
  H      -4.487203     -2.568443      4.055013
  O      -5.398368     -2.249316      3.892937
  H      -5.280741     -1.471725      3.295943
  H       2.296240     -5.694923      4.705572
  O       2.662946     -6.588185      4.480028
  H       1.924382     -7.122860      4.162183
  H       1.985311     -0.807534      5.125194
  O       1.406244     -1.305497      5.739282
  H       1.536892     -0.931509      6.626986
  H      -2.145113     -3.072289      4.537400
  O      -3.029534     -3.501534      4.628781
  H      -2.999593     -4.141868      3.891892
  H      -5.442778     -2.061589      6.847486
  O      -6.064758     -1.509332      6.354284
  H      -6.008807     -1.833444      5.425650
  H      -3.438157     -3.654899      7.788356
  O      -3.755313     -2.997139      7.164948
  H      -3.492118     -3.328452      6.274695
  H       0.576343      0.487460      8.772806
  O       0.542623     -0.308223      8.228413
  H      -0.406824     -0.525756      8.174502
  H      -2.723756     -1.498187      7.554880
  O      -2.231793     -0.689688      7.789136
  H      -2.874544     -0.119932      8.228043
  S      -1.485403     -5.957187      7.565451
  H      -2.785293     -5.987447      7.931084
  H      -1.757531     -5.305642      6.415162
45
Coordinates from ORCA-job neb_49_287_CI_MEP.QMRegion E -2416.349581671927
  H      -0.198058     -3.595123      3.686837
  O      -0.492950     -2.782737      4.126379
  H       0.175160     -2.637016      4.819453
  H      -2.391837     -3.677021      1.838820
  O      -2.437252     -4.599634      2.176877
  H      -1.503276     -4.847290      2.336040
  H      -0.983152      0.644344      5.965717
  O      -0.693093      0.132243      5.189002
  H       0.033767     -0.454709      5.481412
  H       2.046018     -3.652063      4.142669
  O       1.966688     -4.124108      4.997740
  H       2.513091     -3.576912      5.594455
  H       4.497735     -2.339924      5.569387
  O       4.172164     -2.840442      6.354216
  H       4.519072     -3.737791      6.196339
  H      -5.499380     -5.131370      1.721669
  O      -4.825996     -5.787034      1.410430
  H      -3.964409     -5.361781      1.564441
  H      -4.494626     -2.575762      4.062647
  O      -5.403973     -2.248973      3.900535
  H      -5.279976     -1.470773      3.306313
  H       2.302260     -5.713327      4.714835
  O       2.674008     -6.603988      4.486532
  H       1.937810     -7.140218      4.166322
  H       1.986969     -0.821004      5.127299
  O       1.409555     -1.326498      5.736345
  H       1.534987     -0.957955      6.627047
  H      -2.167297     -3.081984      4.527544
  O      -3.050593     -3.513393      4.601463
  H      -3.011384     -4.140273      3.852893
  H      -5.452091     -2.063582      6.859093
  O      -6.068053     -1.505731      6.364025
  H      -6.014490     -1.829043      5.435412
  H      -3.401602     -3.677778      7.737203
  O      -3.770437     -2.993265      7.163712
  H      -3.532845     -3.296526      6.259803
  H       0.564332      0.458533      8.773098
  O       0.521536     -0.328640      8.217819
  H      -0.430322     -0.540128      8.164003
  H      -2.743458     -1.515716      7.547729
  O      -2.244778     -0.706429      7.772967
  H      -2.877953     -0.138901      8.228083
  S      -1.993099     -5.820437      7.678354
  H      -3.246505     -6.271782      7.463658
  H      -1.850873     -5.447151      6.388881
45
Coordinates from ORCA-job neb_49_287_CI_MEP.QMRegion E -2416.350484160100
  H      -0.132938     -3.596268      3.733073
  O      -0.422907     -2.779113      4.166471
  H       0.246729     -2.625376      4.856424
  H      -2.357081     -3.673701      1.854452
  O      -2.404965     -4.590692      2.206429
  H      -1.469486     -4.841824      2.364222
  H      -0.952212      0.638425      5.973485
  O      -0.667527      0.117645      5.200329
  H       0.068188     -0.457994      5.493776
  H       2.112792     -3.642023      4.165559
  O       2.048777     -4.116202      5.019626
  H       2.585483     -3.564052      5.619769
  H       4.553501     -2.338914      5.594987
  O       4.246382     -2.829097      6.393946
  H       4.563806     -3.735995      6.228966
  H      -5.463484     -5.121242      1.732863
  O      -4.791206     -5.776302      1.420963
  H      -3.928708     -5.352463      1.576002
  H      -4.429391     -2.559985      4.068166
  O      -5.346245     -2.256942      3.903391
  H      -5.238078     -1.474832      3.310902
  H       2.344549     -5.721356      4.744705
  O       2.706956     -6.612899      4.508600
  H       1.963328     -7.149303      4.207927
  H       2.032339     -0.817610      5.149753
  O       1.463777     -1.315020      5.773034
  H       1.594483     -0.927592      6.655409
  H      -2.078335     -3.072438      4.568250
  O      -2.974163     -3.484120      4.616464
  H      -2.933763     -4.089088      3.847427
  H      -5.357441     -2.025525      6.845281
  O      -6.026965     -1.506218      6.371815
  H      -5.970600     -1.827548      5.443238
  H      -3.773102     -3.805918      7.660812
  O      -3.742688     -2.970218      7.179355
  H      -3.483291     -3.245120      6.272677
  H       0.629314      0.501325      8.793926
  O       0.606303     -0.296909      8.252788
  H      -0.341585     -0.522966      8.198652
  H      -2.637467     -1.546698      7.679388
  O      -2.165634     -0.707820      7.829789
  H      -2.808983     -0.130631      8.257752
  S      -3.824669     -6.326284      6.765476
  H      -4.823546     -5.927813      5.947651
  H      -2.896728     -5.772078      5.956769
