15
Coordinates from ORCA-job neb_9_88_CI_MEP.QMRegion E -1703.017282379185
  H     -10.033907      3.070000     -4.881420
  O     -10.235849      2.178954     -4.553202
  H     -10.236527      2.341812     -3.583551
  H     -10.224397      4.173098     -2.652865
  O     -10.371342      3.401149     -2.076030
  H      -9.554885      3.358174     -1.534177
  H      -9.760584      5.892306     -4.588376
  O     -10.211023      5.039168     -4.407447
  H     -11.159610      5.194578     -4.517114
  H      -8.996194      8.016160     -4.102369
  O      -8.913146      7.466618     -4.888510
  H      -7.946087      7.297528     -4.955969
  S     -13.310377      3.677674     -3.988964
  H     -12.740291      3.573850     -2.770717
  H     -12.436976      2.772784     -4.493297
15
Coordinates from ORCA-job neb_9_88_CI_MEP.QMRegion E -1703.012830226726
  H      -9.947533      3.039255     -4.662710
  O     -10.253170      2.128105     -4.507468
  H     -10.339765      2.136210     -3.532749
  H     -10.361095      3.968068     -2.481777
  O     -10.453936      3.190500     -1.905675
  H      -9.602691      3.192098     -1.421615
  H      -9.447643      5.729304     -4.298312
  O      -9.978704      4.908074     -4.226906
  H     -10.822715      5.150488     -4.641091
  H      -8.853890      7.868713     -3.743612
  O      -8.866975      7.419479     -4.594953
  H      -7.913458      7.302482     -4.810883
  S     -13.118396      4.885216     -5.257003
  H     -13.255525      4.772728     -3.920365
  H     -12.693383      3.608037     -5.366166
15
Coordinates from ORCA-job neb_9_88_CI_MEP.QMRegion E -1703.010540121179
  H      -9.942143      3.035636     -4.640621
  O     -10.242350      2.120596     -4.497693
  H     -10.334371      2.116158     -3.524302
  H     -10.403739      3.939426     -2.452717
  O     -10.456508      3.154996     -1.882978
  H      -9.595656      3.178764     -1.416401
  H      -9.404777      5.702752     -4.249147
  O      -9.974812      4.906664     -4.226264
  H     -10.746089      5.194142     -4.740847
  H      -8.834767      7.891567     -3.736630
  O      -8.858819      7.424154     -4.578003
  H      -7.908323      7.307597     -4.805744
  S     -12.905231      5.440952     -5.708303
  H     -13.200207      5.382660     -4.393995
  H     -12.750893      4.102398     -5.786275
15
Coordinates from ORCA-job neb_9_88_CI_MEP.QMRegion E -1703.007724007301
  H      -9.905921      3.050435     -4.676819
  O     -10.222349      2.146946     -4.509730
  H     -10.314732      2.169566     -3.535278
  H     -10.372475      3.979542     -2.465680
  O     -10.435823      3.183129     -1.915087
  H      -9.582052      3.191621     -1.434221
  H      -9.412135      5.768098     -4.295615
  O      -9.976474      4.965354     -4.252907
  H     -10.743053      5.240518     -4.770969
  H      -8.836268      7.935828     -3.815119
  O      -8.843503      7.441185     -4.641563
  H      -7.887438      7.308754     -4.840404
  S     -13.013257      5.709148     -5.953035
  H     -12.981100      5.736154     -4.605622
  H     -12.578662      4.432896     -6.002157
15
Coordinates from ORCA-job neb_9_88_CI_MEP.QMRegion E -1703.004989495118
  H      -9.847551      3.087405     -4.737087
  O     -10.190683      2.200296     -4.545412
  H     -10.285054      2.251548     -3.571031
  H     -10.308385      4.056202     -2.510315
  O     -10.403431      3.255694     -1.970484
  H      -9.559847      3.238053     -1.470857
  H      -9.398715      5.861893     -4.371179
  O      -9.922519      5.033065     -4.287870
  H     -10.741717      5.265659     -4.736262
  H      -8.815191      8.004175     -3.892466
  O      -8.813580      7.501591     -4.713749
  H      -7.854053      7.341152     -4.883175
  S     -13.221310      5.730181     -6.009618
  H     -12.832192      5.954037     -4.738459
  H     -12.426309      4.647917     -6.136299
15
Coordinates from ORCA-job neb_9_88_CI_MEP.QMRegion E -1703.004440661025
  H      -9.876318      3.114899     -4.796454
  O     -10.200096      2.227828     -4.580682
  H     -10.310269      2.306236     -3.609789
  H     -10.315103      4.122271     -2.545508
  O     -10.420458      3.321258     -2.008623
  H      -9.580434      3.287842     -1.505391
  H      -9.478170      5.930820     -4.448327
  O      -9.972803      5.087003     -4.330346
  H     -10.843764      5.288503     -4.681617
  H      -8.853676      8.058944     -3.967675
  O      -8.829945      7.544359     -4.781269
  H      -7.868394      7.364054     -4.913850
  S     -13.450697      5.667391     -5.971380
  H     -12.815090      6.200014     -4.906931
  H     -12.400960      4.883230     -6.295480
15
Coordinates from ORCA-job neb_9_88_CI_MEP.QMRegion E -1703.005579145102
  H      -9.785511      3.138380     -4.828566
  O     -10.143579      2.268578     -4.595271
  H     -10.241086      2.365748     -3.623928
  H     -10.205287      4.166522     -2.585198
  O     -10.358957      3.373327     -2.047486
  H      -9.533399      3.313389     -1.521220
  H      -9.408964      5.974179     -4.483798
  O      -9.845899      5.102076     -4.361207
  H     -10.764272      5.252585     -4.609134
  H      -8.775491      8.109347     -3.983003
  O      -8.774089      7.616028     -4.810237
  H      -7.817984      7.399054     -4.940451
  S     -13.231183      5.488014     -5.737108
  H     -12.571780      6.510474     -5.157659
  H     -12.160017      5.118657     -6.468341
15
Coordinates from ORCA-job neb_9_88_CI_MEP.QMRegion E -1703.009275149132
  H      -9.769073      3.151880     -4.854480
  O     -10.137527      2.288000     -4.612816
  H     -10.238249      2.400647     -3.642933
  H     -10.164676      4.198210     -2.623462
  O     -10.354923      3.416009     -2.077695
  H      -9.542075      3.335123     -1.537033
  H      -9.371066      5.981249     -4.479105
  O      -9.790132      5.105380     -4.350930
  H     -10.717376      5.245440     -4.600945
  H      -8.767265      8.160711     -4.017081
  O      -8.766347      7.669756     -4.845687
  H      -7.814588      7.431352     -4.962858
  S     -12.806976      5.623933     -5.674534
  H     -12.372111      6.894496     -5.559746
  H     -11.993373      5.380574     -6.722799
15
Coordinates from ORCA-job neb_9_88_CI_MEP.QMRegion E -1703.011093821867
  H      -9.811895      3.147144     -4.841046
  O     -10.153337      2.272390     -4.600936
  H     -10.254398      2.380063     -3.630605
  H     -10.220091      4.180737     -2.607244
  O     -10.377981      3.392848     -2.059526
  H      -9.555549      3.330668     -1.531791
  H      -9.377036      5.954651     -4.420069
  O      -9.857541      5.108462     -4.322390
  H     -10.744454      5.320503     -4.653254
  H      -8.775959      8.180873     -4.014667
  O      -8.777182      7.667259     -4.829512
  H      -7.824800      7.435734     -4.951964
  S     -12.396771      6.243978     -6.129869
  H     -11.604377      7.321745     -5.964877
  H     -11.561928      5.711594     -7.045932
15
Coordinates from ORCA-job neb_9_88_CI_MEP.QMRegion E -1703.013549909143
  H      -9.982787      3.099512     -4.861565
  O     -10.212124      2.199879     -4.586922
  H     -10.290661      2.319014     -3.616416
  H     -10.381531      4.135372     -2.582992
  O     -10.424687      3.327585     -2.047346
  H      -9.581891      3.331539     -1.549570
  H      -9.572228      5.907537     -4.422228
  O     -10.154190      5.124572     -4.397133
  H     -10.945872      5.441360     -4.854502
  H      -8.807123      8.120965     -3.874127
  O      -8.802667      7.623269     -4.698439
  H      -7.848700      7.413389     -4.847226
  S     -11.563568      7.149011     -6.780364
  H     -10.487836      7.681643     -6.162404
  H     -10.788771      6.336170     -7.527240
