45
Coordinates from ORCA-job neb_22_53_CI_MEP.QMRegion E -2416.356383622096
  H       0.171725      5.681933     -0.707815
  O       0.693947      6.339960     -1.223793
  H       0.820519      7.137948     -0.658855
  H      -0.439964      6.895360     -2.312208
  O      -1.172811      7.303619     -2.836933
  H      -1.953054      7.171620     -2.249945
  H      -0.830147      4.460767     -4.054253
  O      -1.582016      5.043331     -4.270182
  H      -1.385216      5.891749     -3.823384
  H       0.664067      3.063860     -2.670977
  O       0.650309      3.429620     -3.586026
  H       0.732028      2.637018     -4.141040
  H      -0.647451      8.873246     -2.251224
  O      -0.492586      9.713648     -1.760681
  H       0.233353      9.507762     -1.145638
  H       2.269757      5.807789     -1.134778
  O       3.214382      5.535772     -1.054760
  H       3.327542      4.842208     -1.731263
  H       3.421636      3.373373     -3.591578
  O       3.251807      4.336888     -3.459049
  H       2.283290      4.353758     -3.591337
  H      -1.670291      6.109919     -7.154825
  O      -2.048795      5.313269     -6.777563
  H      -1.768989      5.290233     -5.801248
  H       0.814875      2.918256     -7.160398
  O       1.758705      2.629824     -7.204028
  H       1.761151      1.844754     -7.793268
  H      -2.170990     10.551511     -2.810891
  O      -3.129561     10.611733     -2.928520
  H      -3.269829     11.284224     -3.597907
  H       3.504919      2.846287     -6.615928
  O       4.351543      2.578731     -6.222910
  H       4.102167      2.252633     -5.330154
  H       3.793808      7.140081     -1.398386
  O       3.913531      8.112329     -1.498979
  H       4.099315      8.213465     -2.438133
  H      -1.373937      3.694527     -7.026325
  O      -0.846322      2.913534     -6.754756
  H      -1.116796      2.128992     -7.289674
  H       4.023377      5.969474     -4.025054
  O       4.386472      6.851654     -4.230861
  H       5.320174      6.677506     -4.388199
  S       1.486363      6.422901     -6.216070
  H       2.053657      5.360585     -6.823597
  H       2.675361      6.879547     -5.759849
45
Coordinates from ORCA-job neb_22_53_CI_MEP.QMRegion E -2416.355388463209
  H       0.186737      5.669395     -0.705000
  O       0.711571      6.325553     -1.221281
  H       0.835244      7.124915     -0.657963
  H      -0.436870      6.871675     -2.299229
  O      -1.161101      7.291630     -2.826266
  H      -1.947520      7.163892     -2.246500
  H      -0.836744      4.441601     -4.049976
  O      -1.586053      5.028353     -4.261050
  H      -1.375259      5.877736     -3.823751
  H       0.662986      3.048677     -2.671146
  O       0.653861      3.416728     -3.586025
  H       0.737729      2.625220     -4.143390
  H      -0.635825      8.853112     -2.235292
  O      -0.482070      9.699012     -1.753131
  H       0.241291      9.497545     -1.132993
  H       2.281385      5.787647     -1.140420
  O       3.224963      5.513625     -1.054227
  H       3.341509      4.817096     -1.726222
  H       3.431347      3.368915     -3.609594
  O       3.235454      4.326349     -3.468775
  H       2.260957      4.303802     -3.560736
  H      -1.654517      6.093373     -7.145368
  O      -2.050250      5.302827     -6.773065
  H      -1.769474      5.275480     -5.797993
  H       0.830637      2.925376     -7.164997
  O       1.769246      2.622563     -7.201544
  H       1.764191      1.837429     -7.790808
  H      -2.137430     10.532591     -2.803960
  O      -3.093560     10.600486     -2.938674
  H      -3.214717     11.262028     -3.622495
  H       3.507768      2.842164     -6.625210
  O       4.353664      2.576993     -6.227355
  H       4.101226      2.247139     -5.337336
  H       3.802574      7.122014     -1.385849
  O       3.916252      8.093621     -1.496276
  H       4.092403      8.181827     -2.439048
  H      -1.369355      3.692723     -7.021364
  O      -0.838907      2.912311     -6.752078
  H      -1.108751      2.128642     -7.288533
  H       3.949291      5.971625     -4.044412
  O       4.264444      6.874329     -4.240493
  H       5.180041      6.741499     -4.505093
  S       1.217959      6.772267     -6.256121
  H       2.058180      5.794624     -6.650450
  H       2.163904      7.344338     -5.482960
45
Coordinates from ORCA-job neb_22_53_CI_MEP.QMRegion E -2416.354570506875
  H       0.180427      5.672446     -0.699705
  O       0.704064      6.330070     -1.215707
  H       0.829562      7.128717     -0.651464
  H      -0.442372      6.876503     -2.289012
  O      -1.163316      7.296992     -2.820541
  H      -1.952498      7.169646     -2.243908
  H      -0.844926      4.438247     -4.035964
  O      -1.591076      5.027427     -4.250500
  H      -1.381428      5.876548     -3.812878
  H       0.658689      3.047946     -2.667696
  O       0.649201      3.417655     -3.582301
  H       0.733187      2.627186     -4.141527
  H      -0.638210      8.857088     -2.229596
  O      -0.481858      9.703697     -1.749400
  H       0.240317      9.501365     -1.128062
  H       2.274794      5.792778     -1.133472
  O       3.218146      5.517780     -1.049681
  H       3.332699      4.819869     -1.720805
  H       3.428706      3.367503     -3.602573
  O       3.225128      4.322930     -3.458168
  H       2.250130      4.289907     -3.545120
  H      -1.636846      6.082286     -7.137940
  O      -2.053156      5.300953     -6.768403
  H      -1.772266      5.272881     -5.794985
  H       0.831643      2.927070     -7.163884
  O       1.769079      2.621080     -7.197828
  H       1.763391      1.836217     -7.787299
  H      -2.137394     10.537841     -2.804227
  O      -3.092926     10.602063     -2.944440
  H      -3.211915     11.256647     -3.635371
  H       3.508564      2.845254     -6.621759
  O       4.354142      2.577280     -6.225016
  H       4.101815      2.247138     -5.335143
  H       3.796716      7.126045     -1.382623
  O       3.909112      8.097629     -1.493891
  H       4.070061      8.186803     -2.439319
  H      -1.371859      3.694279     -7.015246
  O      -0.840494      2.912717     -6.749251
  H      -1.111075      2.129870     -7.286309
  H       3.910278      5.975773     -4.039108
  O       4.191417      6.886685     -4.246470
  H       5.094655      6.779365     -4.559502
  S       1.103418      6.971876     -6.327574
  H       2.065302      6.048149     -6.520594
  H       1.780716      7.533980     -5.306873
45
Coordinates from ORCA-job neb_22_53_CI_MEP.QMRegion E -2416.354540150808
  H       0.178307      5.673996     -0.695437
  O       0.700865      6.331687     -1.212712
  H       0.829178      7.130412     -0.648839
  H      -0.446163      6.877689     -2.279422
  O      -1.163437      7.299679     -2.815325
  H      -1.955786      7.174214     -2.241896
  H      -0.853643      4.436178     -4.023266
  O      -1.594426      5.029856     -4.243415
  H      -1.384772      5.878813     -3.806004
  H       0.653584      3.046348     -2.664993
  O       0.642840      3.418272     -3.579027
  H       0.728985      2.629510     -4.140684
  H      -0.639585      8.855635     -2.223795
  O      -0.481384      9.703810     -1.746812
  H       0.240339      9.502526     -1.124515
  H       2.271528      5.791940     -1.130977
  O       3.214818      5.517355     -1.047821
  H       3.329132      4.819379     -1.719060
  H       3.426255      3.368070     -3.603730
  O       3.212685      4.320428     -3.453896
  H       2.236884      4.274589     -3.532016
  H      -1.606566      6.072937     -7.126665
  O      -2.053483      5.304089     -6.765671
  H      -1.779638      5.269352     -5.792157
  H       0.830462      2.933270     -7.162630
  O       1.765966      2.622101     -7.194907
  H       1.757982      1.837610     -7.784616
  H      -2.134540     10.539237     -2.800512
  O      -3.089323     10.603121     -2.945952
  H      -3.203943     11.252946     -3.642137
  H       3.505897      2.849850     -6.622672
  O       4.351227      2.579759     -6.226431
  H       4.098383      2.249485     -5.336986
  H       3.791093      7.127750     -1.381302
  O       3.903700      8.098500     -1.498190
  H       4.047260      8.182646     -2.447164
  H      -1.377243      3.699167     -7.009045
  O      -0.844603      2.916515     -6.746151
  H      -1.114599      2.134542     -7.284223
  H       3.869671      5.981526     -4.041181
  O       4.119921      6.898522     -4.260501
  H       5.014253      6.814206     -4.604194
  S       1.043384      7.156462     -6.366345
  H       2.063971      6.277454     -6.391318
  H       1.431131      7.641547     -5.171278
45
Coordinates from ORCA-job neb_22_53_CI_MEP.QMRegion E -2416.354870696397
  H       0.170618      5.679835     -0.686820
  O       0.690302      6.340187     -1.203594
  H       0.820342      7.138065     -0.638392
  H      -0.454396      6.883937     -2.263263
  O      -1.168600      7.304150     -2.805630
  H      -1.964353      7.179355     -2.236085
  H      -0.858461      4.436497     -4.013570
  O      -1.599115      5.030913     -4.232569
  H      -1.396748      5.874926     -3.782809
  H       0.647049      3.050202     -2.659646
  O       0.635364      3.422685     -3.573683
  H       0.722019      2.634314     -4.135778
  H      -0.644250      8.864473     -2.211649
  O      -0.483866      9.713417     -1.737353
  H       0.235742      9.511646     -1.112545
  H       2.263348      5.803106     -1.123181
  O       3.205755      5.525420     -1.041161
  H       3.316863      4.824736     -1.710270
  H       3.418764      3.372347     -3.593246
  O       3.204975      4.324097     -3.441261
  H       2.229790      4.280900     -3.526540
  H      -1.582960      6.076885     -7.118325
  O      -2.045941      5.316024     -6.759416
  H      -1.776621      5.280005     -5.786105
  H       0.831519      2.937548     -7.158787
  O       1.766320      2.624825     -7.190072
  H       1.758361      1.841678     -7.781115
  H      -2.134410     10.548206     -2.798259
  O      -3.088051     10.606524     -2.952707
  H      -3.198848     11.250733     -3.654772
  H       3.506762      2.856901     -6.614205
  O       4.351494      2.582674     -6.219691
  H       4.098489      2.252760     -5.329994
  H       3.784166      7.133271     -1.376000
  O       3.894752      8.104743     -1.489613
  H       4.014259      8.197702     -2.440761
  H      -1.375022      3.706276     -7.003560
  O      -0.845637      2.920470     -6.742664
  H      -1.117590      2.140197     -7.281831
  H       3.827547      5.987598     -4.035013
  O       4.043241      6.910009     -4.268620
  H       4.922302      6.847419     -4.653746
  S       0.956589      7.315894     -6.339768
  H       2.040249      6.520938     -6.239370
  H       1.087727      7.728132     -5.063667
45
Coordinates from ORCA-job neb_22_53_CI_MEP.QMRegion E -2416.355732499639
  H       0.168343      5.680135     -0.682598
  O       0.685866      6.342455     -1.199236
  H       0.816956      7.139445     -0.632873
  H      -0.458475      6.882408     -2.250807
  O      -1.170772      7.299838     -2.798941
  H      -1.968761      7.179115     -2.230817
  H      -0.859879      4.429867     -4.008003
  O      -1.600149      5.025298     -4.226389
  H      -1.404242      5.864960     -3.766324
  H       0.642457      3.047714     -2.656062
  O       0.630940      3.420773     -3.570155
  H       0.718836      2.632965     -4.132982
  H      -0.646146      8.867151     -2.202260
  O      -0.485833      9.716060     -1.729108
  H       0.233983      9.515211     -1.103910
  H       2.261713      5.806579     -1.122654
  O       3.202207      5.524395     -1.037243
  H       3.311591      4.821902     -1.704761
  H       3.416385      3.376338     -3.591206
  O       3.196650      4.325755     -3.435104
  H       2.221608      4.276784     -3.521820
  H      -1.548792      6.075447     -7.110442
  O      -2.032357      5.324643     -6.756071
  H      -1.770769      5.284094     -5.781978
  H       0.837685      2.941819     -7.158159
  O       1.770703      2.624860     -7.186581
  H       1.761493      1.841965     -7.777718
  H      -2.126542     10.547483     -2.798300
  O      -3.078671     10.603985     -2.962327
  H      -3.182151     11.240775     -3.672270
  H       3.508012      2.861412     -6.610143
  O       4.351773      2.585100     -6.214774
  H       4.096898      2.254487     -5.325803
  H       3.780209      7.132218     -1.373833
  O       3.885990      8.104128     -1.487573
  H       3.982655      8.200512     -2.440791
  H      -1.368914      3.710900     -7.001340
  O      -0.843526      2.922472     -6.739336
  H      -1.116056      2.143090     -7.279259
  H       3.776394      5.990179     -4.041209
  O       3.958517      6.919663     -4.277691
  H       4.813815      6.879857     -4.715725
  S       0.862060      7.510061     -6.272877
  H       1.993777      6.822497     -6.015591
  H       0.695704      7.791857     -4.965518
45
Coordinates from ORCA-job neb_22_53_CI_MEP.QMRegion E -2416.357444701092
  H       0.178543      5.670024     -0.688024
  O       0.695094      6.332536     -1.205925
  H       0.827892      7.128769     -0.639024
  H      -0.437271      6.875879     -2.255833
  O      -1.154951      7.286819     -2.804539
  H      -1.953428      7.172780     -2.235953
  H      -0.849830      4.409126     -4.004580
  O      -1.586184      5.009561     -4.223893
  H      -1.386049      5.846493     -3.762274
  H       0.649821      3.030399     -2.659308
  O       0.639496      3.405426     -3.572884
  H       0.729773      2.619680     -4.138787
  H      -0.623431      8.859876     -2.210632
  O      -0.472271      9.705220     -1.731389
  H       0.249306      9.504549     -1.107712
  H       2.276022      5.801767     -1.133969
  O       3.210855      5.506407     -1.039498
  H       3.319583      4.805147     -1.708732
  H       3.428491      3.371640     -3.602432
  O       3.192407      4.316188     -3.439433
  H       2.216604      4.244593     -3.515583
  H      -1.454659      6.066924     -7.092509
  O      -1.987073      5.338938     -6.758629
  H      -1.747452      5.275469     -5.781549
  H       0.864073      2.939439     -7.167012
  O       1.793193      2.613826     -7.189090
  H       1.779392      1.830390     -7.780220
  H      -2.093416     10.531911     -2.807976
  O      -3.042946     10.587475     -2.987484
  H      -3.132082     11.210142     -3.711825
  H       3.525330      2.858008     -6.615792
  O       4.366939      2.578061     -6.218244
  H       4.109251      2.245752     -5.331061
  H       3.788537      7.117297     -1.381158
  O       3.887309      8.088929     -1.501633
  H       3.945368      8.182291     -2.458404
  H      -1.345110      3.709398     -7.005000
  O      -0.825685      2.917885     -6.741416
  H      -1.099268      2.141028     -7.285138
  H       3.667805      5.990923     -4.081800
  O       3.792179      6.933087     -4.312018
  H       4.591744      6.935908     -4.846666
  S       0.663053      7.857588     -6.011496
  H       1.829640      7.394082     -5.503630
  H       0.056818      7.837661     -4.807052
