15
Coordinates from ORCA-job neb_180_372_CI_MEP.QMRegion E -1703.024043499411
  H       2.001079     -3.572248      4.212379
  O       1.899646     -4.037713      5.070428
  H       2.394593     -3.467067      5.685528
  H       4.450739     -2.212026      5.644471
  O       4.070476     -2.627947      6.455105
  H       4.481597     -3.505039      6.448421
  H       2.301756     -5.616111      4.800764
  O       2.591573     -6.532362      4.530941
  H       1.803040     -6.998167      4.217729
  H       5.812383     -5.169651      4.780174
  O       5.420081     -5.001444      5.670261
  H       5.467017     -5.837297      6.159562
  S       4.367940     -7.900673      7.037683
  H       3.653477     -7.336998      8.034906
  H       3.496982     -7.462043      6.082386
15
Coordinates from ORCA-job neb_180_372_CI_MEP.QMRegion E -1703.019064183717
  H       1.990856     -3.557788      4.154791
  O       1.895398     -4.020618      5.016554
  H       2.401165     -3.450209      5.623071
  H       4.455657     -2.201916      5.606102
  O       4.054919     -2.624485      6.404513
  H       4.467482     -3.499203      6.410581
  H       2.290455     -5.573637      4.740902
  O       2.594279     -6.497843      4.510551
  H       1.819572     -6.978011      4.186045
  H       5.844635     -5.148950      4.737464
  O       5.461592     -4.999044      5.638924
  H       5.720506     -5.753687      6.175430
  S       3.943691     -7.522208      7.474631
  H       2.900797     -7.751083      8.297294
  H       3.166848     -7.131323      6.429767
15
Coordinates from ORCA-job neb_180_372_CI_MEP.QMRegion E -1703.018765475560
  H       1.997712     -3.575652      4.168900
  O       1.899967     -4.044745      5.025924
  H       2.398505     -3.478584      5.641401
  H       4.462720     -2.227005      5.616442
  O       4.058963     -2.633090      6.420806
  H       4.471816     -3.505728      6.460969
  H       2.294149     -5.611359      4.757470
  O       2.596005     -6.530484      4.509410
  H       1.816532     -7.002207      4.183619
  H       5.854045     -5.173615      4.758664
  O       5.495374     -5.040341      5.672337
  H       5.822179     -5.780088      6.192062
  S       3.864545     -7.228735      7.587307
  H       2.926831     -7.981205      8.197054
  H       3.179052     -7.135103      6.417069
15
Coordinates from ORCA-job neb_180_372_CI_MEP.QMRegion E -1703.019114615794
  H       1.978837     -3.532760      4.157168
  O       1.875202     -3.998262      5.016795
  H       2.368778     -3.426687      5.631574
  H       4.439996     -2.184158      5.605630
  O       4.031386     -2.593174      6.406889
  H       4.450012     -3.462853      6.442954
  H       2.269545     -5.543046      4.741482
  O       2.574582     -6.467427      4.505209
  H       1.796706     -6.948098      4.190290
  H       5.824784     -5.132614      4.743164
  O       5.458371     -4.994459      5.652441
  H       5.739611     -5.756933      6.167667
  S       3.700676     -7.022204      7.657501
  H       3.028247     -8.109565      8.083798
  H       3.159127     -7.047480      6.409359
15
Coordinates from ORCA-job neb_180_372_CI_MEP.QMRegion E -1703.019096827742
  H       1.979468     -3.565680      4.168101
  O       1.877002     -4.016109      5.035233
  H       2.370513     -3.430137      5.636914
  H       4.436791     -2.190927      5.610610
  O       4.050157     -2.624920      6.409472
  H       4.456645     -3.503165      6.377835
  H       2.279830     -5.587148      4.736750
  O       2.588297     -6.505256      4.508709
  H       1.812026     -6.984557      4.187265
  H       5.799492     -5.160682      4.741088
  O       5.405495     -4.992417      5.631895
  H       5.470191     -5.814400      6.131095
  S       3.651832     -7.033678      7.897292
  H       3.276174     -8.206557      7.350023
  H       2.969453     -6.357348      6.949862
15
Coordinates from ORCA-job neb_180_372_CI_MEP.QMRegion E -1703.019123009474
  H       1.946776     -3.600269      4.170327
  O       1.816043     -4.036615      5.040524
  H       2.282908     -3.431833      5.644593
  H       4.380668     -2.190481      5.601379
  O       3.998030     -2.637256      6.393984
  H       4.385845     -3.522838      6.316347
  H       2.243719     -5.630071      4.752670
  O       2.559129     -6.535013      4.494351
  H       1.786576     -7.005041      4.150263
  H       5.740925     -5.155851      4.709271
  O       5.319243     -4.973981      5.582739
  H       5.176800     -5.822545      6.019110
  S       3.509242     -7.088738      7.846173
  H       2.917289     -7.766534      6.839624
  H       2.816344     -5.975103      7.526025
15
Coordinates from ORCA-job neb_180_372_CI_MEP.QMRegion E -1703.019172308411
  H       1.947944     -3.574357      4.171814
  O       1.836221     -4.029152      5.035738
  H       2.388779     -3.486426      5.628731
  H       4.435047     -2.252408      5.581414
  O       4.069462     -2.737988      6.359037
  H       4.444745     -3.626865      6.227932
  H       2.178436     -5.595589      4.722817
  O       2.485779     -6.520213      4.504536
  H       1.716549     -7.001135      4.164760
  H       5.726128     -5.279805      4.709286
  O       5.314155     -5.088378      5.583363
  H       5.027504     -5.920178      5.976981
  S       3.069148     -6.818544      7.819596
  H       2.552601     -6.920397      6.566894
  H       2.586181     -5.565921      7.964025
