12
Coordinates from ORCA-job neb_71_196_CI_MEP.QMRegion E -1631.688442178553
  H      -4.409086     -2.630527      4.144395
  O      -5.304822     -2.279288      3.964634
  H      -5.162060     -1.500612      3.376246
  H      -6.946261     -0.081119      7.109185
  O      -7.531427      0.602126      7.484200
  H      -8.027808      0.942168      6.733861
  H      -5.169770     -2.004872      6.874253
  O      -5.921447     -1.556962      6.444507
  H      -5.863662     -1.876194      5.507846
  S      -8.461054     -2.507292      8.953030
  H      -8.469857     -1.166204      8.786669
  H      -7.709895     -2.657631      7.841578
12
Coordinates from ORCA-job neb_71_196_CI_MEP.QMRegion E -1631.687225271821
  H      -4.368204     -2.594664      4.195785
  O      -5.265879     -2.246403      4.014630
  H      -5.119970     -1.469892      3.425721
  H      -6.925394     -0.065265      7.299128
  O      -7.544896      0.583622      7.675573
  H      -8.052865      0.902322      6.923487
  H      -5.091601     -1.966215      6.930516
  O      -5.866547     -1.530903      6.526558
  H      -5.827750     -1.851276      5.589417
  S      -8.630337     -2.908549      8.365247
  H      -9.096330     -1.656480      8.177222
  H      -7.496919     -2.613408      7.689265
12
Coordinates from ORCA-job neb_71_196_CI_MEP.QMRegion E -1631.685955508361
  H      -4.364627     -2.597905      4.185873
  O      -5.262476     -2.250254      4.004318
  H      -5.117753     -1.472104      3.416963
  H      -6.902352     -0.090537      7.317167
  O      -7.499095      0.541273      7.754607
  H      -8.125130      0.803365      7.075273
  H      -5.092685     -1.976927      6.915044
  O      -5.866140     -1.540930      6.508766
  H      -5.820908     -1.856582      5.569449
  S      -8.648684     -3.036965      8.244112
  H      -9.325586     -1.952953      7.813387
  H      -7.512471     -2.601491      7.653443
12
Coordinates from ORCA-job neb_71_196_CI_MEP.QMRegion E -1631.685264147637
  H      -4.363893     -2.608633      4.171481
  O      -5.261244     -2.260211      3.988756
  H      -5.116964     -1.480031      3.403515
  H      -6.891623     -0.131864      7.314083
  O      -7.449694      0.495747      7.804758
  H      -8.198682      0.668944      7.230211
  H      -5.104345     -1.995364      6.895344
  O      -5.873782     -1.558409      6.482982
  H      -5.817847     -1.867330      5.541380
  S      -8.685918     -3.091757      8.187242
  H      -9.442382     -2.187336      7.531911
  H      -7.555259     -2.616307      7.616905
12
Coordinates from ORCA-job neb_71_196_CI_MEP.QMRegion E -1631.685023579971
  H      -4.371908     -2.622739      4.169107
  O      -5.268165     -2.272442      3.984579
  H      -5.122385     -1.491364      3.401160
  H      -6.899674     -0.188308      7.321893
  O      -7.409548      0.452061      7.846382
  H      -8.269810      0.501464      7.425240
  H      -5.121999     -2.019529      6.892017
  O      -5.888906     -1.581112      6.477062
  H      -5.828277     -1.883848      5.534370
  S      -8.744571     -3.099422      8.182885
  H      -9.518072     -2.408293      7.319982
  H      -7.611413     -2.649671      7.596542
12
Coordinates from ORCA-job neb_71_196_CI_MEP.QMRegion E -1631.686138108940
  H      -4.365233     -2.637035      4.137343
  O      -5.261858     -2.287645      3.955609
  H      -5.121727     -1.502957      3.374608
  H      -6.908489     -0.246230      7.215093
  O      -7.418661      0.529304      7.496437
  H      -8.288422      0.201554      7.721765
  H      -5.109444     -2.066879      6.853199
  O      -5.882759     -1.633253      6.445732
  H      -5.816034     -1.910313      5.494903
  S      -8.748626     -2.922262      8.161426
  H      -9.515318     -2.481379      7.143237
  H      -7.607657     -2.688068      7.470428
12
Coordinates from ORCA-job neb_71_196_CI_MEP.QMRegion E -1631.687898602806
  H      -4.363703     -2.626543      4.158507
  O      -5.261061     -2.278703      3.975365
  H      -5.119446     -1.493341      3.395917
  H      -6.904136     -0.257586      7.290859
  O      -7.452432      0.433685      7.694443
  H      -8.164588     -0.047889      8.122341
  H      -5.109632     -2.065879      6.877920
  O      -5.880694     -1.630186      6.468083
  H      -5.809516     -1.903972      5.517007
  S      -8.906713     -2.900390      7.763904
  H      -9.524140     -2.762155      6.572574
  H      -7.685135     -2.702116      7.211823
