39
Coordinates from ORCA-job neb_92_476_CI_MEP.QMRegion E -2273.676370463671
  H       8.762637     -5.065417     -2.963863
  O       8.061790     -5.499867     -2.419605
  H       8.072553     -6.453099     -2.579424
  H       6.512821     -4.151497     -0.697944
  O       7.151560     -4.531664     -0.058480
  H       7.764653     -4.989270     -0.675986
  H       6.381534     -5.947586      0.665587
  O       6.077150     -6.686155      1.246783
  H       5.170354     -6.413272      1.494701
  H       5.594248     -8.014823      0.132536
  O       5.329675     -8.747986     -0.464074
  H       4.518698     -8.412268     -0.900417
  H       7.493722     -0.556220      3.101677
  O       6.783715      0.068814      3.278471
  H       6.081995     -0.529818      3.650313
  H       7.565255     -2.665066      4.332672
  O       7.785321     -2.661732      3.376055
  H       7.185179     -3.354119      3.034707
  H       6.615680     -5.913574      2.695842
  O       6.743994     -5.262136      3.419870
  H       7.645005     -5.389446      3.764683
  H       9.304371      0.230285     -1.200434
  O       8.650381      0.475081     -0.539280
  H       8.368426     -0.377739     -0.169704
  H       7.988276     -3.075881      0.319209
  O       8.494980     -2.240458      0.463276
  H       8.683561     -2.248632      1.407913
  H       9.079205     -3.947712      3.799838
  O       9.409580     -4.826597      4.080950
  H       9.575940     -4.725844      5.023347
  H       6.587528     -8.544200     -1.610790
  O       7.258226     -8.279073     -2.297725
  H       7.396249     -9.054565     -2.846781
  H       9.726937     -2.262032     -1.130727
  O       9.955316     -1.948620     -2.020801
  H       9.084339     -1.693646     -2.396176
  S       9.831102     -6.771105      1.026486
  H       9.914093     -6.118571      2.206100
  H       8.674027     -7.370331      1.373565
39
Coordinates from ORCA-job neb_92_476_CI_MEP.QMRegion E -2273.675860715889
  H       8.744557     -5.048421     -2.964669
  O       8.049356     -5.484067     -2.413207
  H       8.018089     -6.426717     -2.623399
  H       6.495745     -4.117836     -0.695833
  O       7.128224     -4.486422     -0.043031
  H       7.755914     -4.940234     -0.644073
  H       6.368901     -5.912953      0.676591
  O       6.074894     -6.659336      1.251727
  H       5.168270     -6.394063      1.507514
  H       5.588210     -7.971196      0.123970
  O       5.320299     -8.705841     -0.470126
  H       4.503286     -8.374546     -0.899066
  H       7.524398     -0.555027      3.126415
  O       6.799303      0.055310      3.290475
  H       6.102648     -0.548456      3.663618
  H       7.602070     -2.684494      4.350904
  O       7.853167     -2.716616      3.403128
  H       7.269336     -3.429302      3.072095
  H       6.636237     -5.928658      2.702027
  O       6.774025     -5.294289      3.441570
  H       7.656829     -5.465062      3.812398
  H       9.308450      0.236602     -1.118810
  O       8.640470      0.489381     -0.475162
  H       8.356086     -0.360199     -0.097545
  H       7.961792     -3.034052      0.361195
  O       8.473032     -2.205142      0.523669
  H       8.653110     -2.236959      1.470115
  H       9.087917     -4.018005      3.962079
  O       9.405161     -4.889486      4.278231
  H       9.475222     -4.776033      5.231612
  H       6.545633     -8.526859     -1.639187
  O       7.208559     -8.288425     -2.346450
  H       7.219485     -9.030605     -2.956130
  H       9.695934     -2.273260     -1.097668
  O       9.932899     -1.959246     -1.985108
  H       9.068373     -1.693812     -2.367481
  S      10.372629     -5.860982      0.971534
  H      10.521245     -5.234179      2.157082
  H       9.772926     -6.914163      1.562877
39
Coordinates from ORCA-job neb_92_476_CI_MEP.QMRegion E -2273.675549097751
  H       8.750789     -5.042724     -2.950647
  O       8.059877     -5.471730     -2.389469
  H       8.028194     -6.417695     -2.587081
  H       6.513354     -4.083156     -0.687990
  O       7.151100     -4.441391     -0.034296
  H       7.772980     -4.903049     -0.635818
  H       6.388221     -5.867608      0.694180
  O       6.095940     -6.616355      1.266259
  H       5.186195     -6.360787      1.520023
  H       5.601294     -7.929625      0.136292
  O       5.334082     -8.668810     -0.452329
  H       4.517056     -8.344131     -0.885108
  H       7.534442     -0.551732      3.137503
  O       6.802951      0.053053      3.293617
  H       6.107568     -0.552384      3.666896
  H       7.655226     -2.669940      4.357536
  O       7.920714     -2.714315      3.415187
  H       7.348745     -3.440799      3.091387
  H       6.672454     -5.900781      2.718693
  O       6.806284     -5.270941      3.463305
  H       7.673346     -5.463114      3.861455
  H       9.323786      0.264939     -1.114648
  O       8.655111      0.510638     -0.469091
  H       8.384951     -0.340910     -0.084784
  H       7.989431     -2.993538      0.380220
  O       8.507121     -2.170770      0.552708
  H       8.655187     -2.199054      1.506160
  H       9.146861     -4.058837      4.057329
  O       9.399611     -4.920547      4.443461
  H       9.336907     -4.764062      5.391615
  H       6.563264     -8.498248     -1.618168
  O       7.222919     -8.262141     -2.329024
  H       7.249994     -9.015369     -2.924652
  H       9.709705     -2.250560     -1.089775
  O       9.938543     -1.951488     -1.983878
  H       9.072180     -1.686693     -2.362682
  S      10.534674     -5.510918      1.023586
  H      10.751669     -4.507133      1.896953
  H      10.280244     -6.374768      2.026823
39
Coordinates from ORCA-job neb_92_476_CI_MEP.QMRegion E -2273.675795202792
  H       8.762694     -5.047217     -2.936792
  O       8.074030     -5.470641     -2.368677
  H       8.049677     -6.421885     -2.542413
  H       6.513752     -4.078638     -0.656688
  O       7.173650     -4.446278     -0.032504
  H       7.766787     -4.905725     -0.667931
  H       6.407264     -5.867011      0.716162
  O       6.108241     -6.608768      1.292851
  H       5.197868     -6.349735      1.540856
  H       5.600966     -7.923177      0.165222
  O       5.332646     -8.660313     -0.425114
  H       4.520355     -8.333058     -0.864321
  H       7.554312     -0.535494      3.161700
  O       6.805430      0.050835      3.299942
  H       6.114994     -0.562438      3.670907
  H       7.688811     -2.666782      4.362274
  O       7.969030     -2.742539      3.426992
  H       7.414746     -3.494819      3.127212
  H       6.704255     -5.903441      2.741060
  O       6.838671     -5.272680      3.485762
  H       7.683497     -5.491912      3.916457
  H       9.335734      0.266601     -1.083817
  O       8.652863      0.503719     -0.450110
  H       8.393391     -0.349561     -0.062551
  H       8.002329     -2.992424      0.407413
  O       8.520247     -2.176210      0.606878
  H       8.571666     -2.178315      1.571985
  H       9.188844     -4.098627      4.192271
  O       9.373938     -4.955767      4.619169
  H       9.236621     -4.769464      5.554206
  H       6.570530     -8.479169     -1.582743
  O       7.229300     -8.240768     -2.293320
  H       7.294963     -9.011056     -2.862765
  H       9.720902     -2.248363     -1.077951
  O       9.936321     -1.951754     -1.974944
  H       9.066540     -1.689481     -2.348029
  S      10.869419     -5.305801      1.314938
  H      10.494606     -4.047582      1.624447
  H      10.781152     -5.699216      2.601541
39
Coordinates from ORCA-job neb_92_476_CI_MEP.QMRegion E -2273.675327019731
  H       8.764200     -5.042019     -2.930495
  O       8.079328     -5.466408     -2.357935
  H       8.047407     -6.416986     -2.536555
  H       6.488432     -4.077724     -0.631636
  O       7.164234     -4.454532     -0.031757
  H       7.736385     -4.909201     -0.691608
  H       6.407827     -5.875722      0.734662
  O       6.111349     -6.617103      1.312012
  H       5.202854     -6.355753      1.565227
  H       5.601427     -7.918599      0.170438
  O       5.337009     -8.649960     -0.428859
  H       4.522922     -8.322929     -0.864792
  H       7.541900     -0.511389      3.153317
  O       6.793186      0.072358      3.300980
  H       6.106093     -0.548138      3.666294
  H       7.607373     -2.624653      4.324687
  O       7.860728     -2.695215      3.383134
  H       7.346341     -3.484512      3.108253
  H       6.730664     -5.911897      2.766453
  O       6.845838     -5.262652      3.497169
  H       7.684767     -5.453304      3.952961
  H       9.337681      0.269408     -1.069130
  O       8.647784      0.497784     -0.439791
  H       8.390736     -0.359037     -0.059795
  H       8.004841     -3.011127      0.402457
  O       8.536761     -2.205995      0.612614
  H       8.525101     -2.184005      1.579940
  H       9.151435     -4.009248      4.227164
  O       9.285823     -4.788271      4.794036
  H       8.968030     -4.473638      5.649534
  H       6.572948     -8.465529     -1.581420
  O       7.232476     -8.226720     -2.292141
  H       7.298181     -8.996059     -2.862856
  H       9.727066     -2.234791     -1.080232
  O       9.937269     -1.941427     -1.978854
  H       9.065425     -1.681046     -2.349421
  S      10.973823     -5.071344      1.465371
  H      10.358287     -3.886075      1.265840
  H      11.014535     -4.902319      2.803219
39
Coordinates from ORCA-job neb_92_476_CI_MEP.QMRegion E -2273.676152620094
  H       8.759887     -5.033432     -2.933964
  O       8.076171     -5.456252     -2.358994
  H       8.034179     -6.405871     -2.542299
  H       6.486707     -4.045099     -0.627429
  O       7.174486     -4.420548     -0.040628
  H       7.729451     -4.878387     -0.713486
  H       6.405202     -5.839993      0.722823
  O       6.113662     -6.589764      1.290779
  H       5.206760     -6.334618      1.554960
  H       5.604505     -7.878597      0.150819
  O       5.347943     -8.615677     -0.446240
  H       4.526964     -8.301460     -0.878412
  H       7.511679     -0.506109      3.130947
  O       6.777990      0.092688      3.297044
  H       6.090380     -0.530056      3.658753
  H       7.627368     -2.584236      4.280228
  O       7.789681     -2.611768      3.320992
  H       7.319248     -3.434010      3.072068
  H       6.730691     -5.873341      2.766557
  O       6.821560     -5.213413      3.487347
  H       7.649648     -5.392297      3.973143
  H       9.334987      0.303075     -1.102784
  O       8.663035      0.531335     -0.454471
  H       8.406069     -0.326378     -0.075250
  H       8.014348     -2.963035      0.377663
  O       8.550052     -2.163596      0.596527
  H       8.523524     -2.151979      1.565575
  H       9.397771     -4.317592      4.183404
  O       9.159814     -4.871547      4.941038
  H       8.722717     -4.252552      5.543351
  H       6.575884     -8.440659     -1.589133
  O       7.240901     -8.207571     -2.299263
  H       7.296422     -8.973980     -2.874939
  H       9.727194     -2.200441     -1.092228
  O       9.940858     -1.922449     -1.995086
  H       9.068852     -1.664083     -2.368388
  S      10.562996     -5.048658      1.719898
  H      10.408046     -3.786825      1.266576
  H      11.553224     -4.703160      2.567254
39
Coordinates from ORCA-job neb_92_476_CI_MEP.QMRegion E -2273.678914661610
  H       8.770706     -5.064187     -2.968067
  O       8.082130     -5.503392     -2.411028
  H       8.064335     -6.454631     -2.591462
  H       6.488748     -4.144772     -0.615680
  O       7.193464     -4.552900     -0.075301
  H       7.722590     -4.987798     -0.786512
  H       6.420899     -5.963197      0.715851
  O       6.107239     -6.695274      1.294476
  H       5.210849     -6.403747      1.557012
  H       5.625699     -7.982140      0.145634
  O       5.370718     -8.694810     -0.481756
  H       4.551117     -8.361469     -0.901245
  H       7.513667     -0.432160      3.107724
  O       6.758487      0.128128      3.297557
  H       6.092579     -0.531803      3.637930
  H       7.468765     -2.597352      4.170758
  O       7.446101     -2.594069      3.200130
  H       7.082318     -3.483819      3.010081
  H       6.747889     -5.944592      2.786604
  O       6.816385     -5.244289      3.466666
  H       7.678271     -5.319133      3.929746
  H       9.317097      0.225078     -1.130125
  O       8.639359      0.452963     -0.487344
  H       8.374961     -0.404901     -0.115762
  H       8.027056     -3.095713      0.346289
  O       8.480985     -2.264480      0.624284
  H       8.249182     -2.219634      1.570182
  H       9.685234     -4.356253      4.325990
  O       9.100573     -4.849192      4.927650
  H       8.665594     -4.162928      5.455818
  H       6.610410     -8.494116     -1.618547
  O       7.275010     -8.242055     -2.320919
  H       7.381068     -9.016403     -2.878478
  H       9.741218     -2.246071     -1.103503
  O       9.939137     -1.940943     -1.999319
  H       9.060065     -1.690309     -2.363604
  S      11.194490     -3.378445      2.597270
  H      10.238002     -3.163206      1.660486
  H      11.134240     -2.094223      3.007022
