36
Coordinates from ORCA-job neb_19_345_CI_MEP.QMRegion E -2202.352557020875
  H      -2.368139     -3.661747      2.021319
  O      -2.375889     -4.586752      2.340839
  H      -1.425540     -4.802087      2.475550
  H      -4.623240     -5.157792     -1.544819
  O      -5.327236     -4.814088     -0.963581
  H      -5.090494     -5.178039     -0.092591
  H      -2.107230     -8.154734      0.584353
  O      -1.717002     -7.646336      1.328699
  H      -2.452059     -7.298001      1.836373
  H      -5.344092     -5.120246      1.840103
  O      -4.686587     -5.817040      1.566314
  H      -3.824650     -5.384418      1.753386
  H      -4.381319     -2.492332      4.208377
  O      -5.308269     -2.221314      4.031268
  H      -5.205427     -1.429285      3.453778
  H      -5.808334     -3.177187      1.293493
  O      -6.277522     -3.737969      1.967712
  H      -6.069932     -3.269640      2.801413
  H      -5.715741     -8.096314     -0.679300
  O      -4.975031     -8.180102     -0.032544
  H      -4.980038     -7.354305      0.481729
  H      -2.778325     -9.894985     -0.838878
  O      -2.678276     -8.943982     -0.935294
  H      -3.599467     -8.586045     -0.750503
  H      -1.983767     -2.953801      4.619968
  O      -2.880136     -3.297106      4.849350
  H      -2.946408     -4.107982      4.322720
  H      -5.257219     -1.983864      7.021628
  O      -5.935604     -1.484611      6.539668
  H      -5.896701     -1.825743      5.621851
  H      -3.343660     -3.587596      7.967151
  O      -3.611186     -2.894026      7.360667
  H      -3.283809     -3.167467      6.468543
  S      -5.041268     -6.111576      5.047783
  H      -5.946712     -5.125338      4.883736
  H      -5.038573     -6.392026      3.724392
36
Coordinates from ORCA-job neb_19_345_CI_MEP.QMRegion E -2202.351502890810
  H      -2.364306     -3.653865      2.020308
  O      -2.378875     -4.575285      2.352457
  H      -1.429340     -4.796892      2.486153
  H      -4.630842     -5.140102     -1.567601
  O      -5.331475     -4.792736     -0.985744
  H      -5.079690     -5.144549     -0.111431
  H      -2.105978     -8.166493      0.588942
  O      -1.712155     -7.660712      1.333634
  H      -2.441258     -7.349863      1.872854
  H      -5.331374     -5.107806      1.823617
  O      -4.682173     -5.786725      1.495831
  H      -3.814765     -5.383755      1.714641
  H      -4.383402     -2.481002      4.210266
  O      -5.309073     -2.204230      4.038424
  H      -5.204398     -1.416221      3.455444
  H      -5.812244     -3.165231      1.297212
  O      -6.283089     -3.724539      1.971887
  H      -6.087047     -3.250090      2.804193
  H      -5.710519     -8.084835     -0.685789
  O      -4.968644     -8.157799     -0.039052
  H      -4.967320     -7.318190      0.453682
  H      -2.786683     -9.892548     -0.842359
  O      -2.678887     -8.941891     -0.933568
  H      -3.598816     -8.577134     -0.750908
  H      -1.997658     -2.950968      4.636819
  O      -2.886658     -3.331214      4.829729
  H      -2.915306     -4.093359      4.227529
  H      -5.267919     -1.975084      7.024999
  O      -5.941836     -1.473511      6.540775
  H      -5.903616     -1.815087      5.622722
  H      -3.338995     -3.579324      7.966625
  O      -3.612254     -2.893903      7.353235
  H      -3.295329     -3.180684      6.463791
  S      -4.935174     -6.658734      4.824797
  H      -5.769506     -5.612671      4.655740
  H      -5.005426     -6.959990      3.509576
36
Coordinates from ORCA-job neb_19_345_CI_MEP.QMRegion E -2202.351114625999
  H      -2.348256     -3.666454      2.020657
  O      -2.366275     -4.584407      2.362514
  H      -1.416071     -4.810410      2.495554
  H      -4.629864     -5.141819     -1.583002
  O      -5.326790     -4.792790     -0.997772
  H      -5.062092     -5.139455     -0.124549
  H      -2.094834     -8.195233      0.611951
  O      -1.697744     -7.679024      1.346957
  H      -2.419502     -7.383958      1.905118
  H      -5.308937     -5.129292      1.809584
  O      -4.657677     -5.793770      1.461155
  H      -3.791219     -5.401021      1.697337
  H      -4.361240     -2.496164      4.213970
  O      -5.285631     -2.215229      4.042347
  H      -5.181273     -1.427658      3.459200
  H      -5.800305     -3.178254      1.302726
  O      -6.268861     -3.741755      1.974749
  H      -6.073913     -3.270517      2.808711
  H      -5.695810     -8.093611     -0.687382
  O      -4.953081     -8.166243     -0.042186
  H      -4.939023     -7.317494      0.435778
  H      -2.769698     -9.913161     -0.843917
  O      -2.660672     -8.961991     -0.928274
  H      -3.580573     -8.596820     -0.747348
  H      -1.986468     -2.968337      4.651735
  O      -2.869421     -3.375969      4.812671
  H      -2.871204     -4.090890      4.150407
  H      -5.256105     -1.983837      7.027992
  O      -5.930052     -1.483575      6.543094
  H      -5.886719     -1.826848      5.625594
  H      -3.311901     -3.591711      7.968833
  O      -3.592604     -2.917396      7.346359
  H      -3.283957     -3.218781      6.460616
  S      -4.855036     -7.071487      4.654695
  H      -5.563778     -5.934495      4.501865
  H      -4.989021     -7.356041      3.342004
36
Coordinates from ORCA-job neb_19_345_CI_MEP.QMRegion E -2202.351194816697
  H      -2.344350     -3.662775      2.016081
  O      -2.366257     -4.578467      2.364658
  H      -1.416622     -4.809867      2.494459
  H      -4.633275     -5.132471     -1.591259
  O      -5.330438     -4.784652     -1.006122
  H      -5.065123     -5.133728     -0.132916
  H      -2.088815     -8.202365      0.622408
  O      -1.695685     -7.676089      1.350565
  H      -2.410387     -7.435840      1.945568
  H      -5.308645     -5.119997      1.795419
  O      -4.660533     -5.782716      1.438377
  H      -3.791376     -5.404473      1.683928
  H      -4.358429     -2.501928      4.213943
  O      -5.282441     -2.218955      4.043198
  H      -5.177215     -1.430654      3.461554
  H      -5.801584     -3.173029      1.303807
  O      -6.269734     -3.740956      1.972615
  H      -6.072719     -3.277813      2.810269
  H      -5.694089     -8.094835     -0.686313
  O      -4.950451     -8.165123     -0.041674
  H      -4.927061     -7.308252      0.422370
  H      -2.770640     -9.924871     -0.856368
  O      -2.657956     -8.973113     -0.929321
  H      -3.576492     -8.606070     -0.748471
  H      -1.986106     -2.967104      4.653585
  O      -2.866790     -3.385354      4.797539
  H      -2.856633     -4.073888      4.105223
  H      -5.254728     -1.983581      7.026746
  O      -5.927935     -1.482848      6.541793
  H      -5.883583     -1.826331      5.624113
  H      -3.300725     -3.596241      7.960878
  O      -3.584978     -2.924021      7.337743
  H      -3.281839     -3.228353      6.451838
  S      -4.730696     -7.411804      4.433779
  H      -5.353571     -6.222102      4.311044
  H      -5.018119     -7.718800      3.151996
36
Coordinates from ORCA-job neb_19_345_CI_MEP.QMRegion E -2202.351433687117
  H      -2.355288     -3.677199      1.984371
  O      -2.376453     -4.593656      2.331628
  H      -1.427231     -4.819467      2.473788
  H      -4.652060     -5.129054     -1.624202
  O      -5.339149     -4.774829     -1.031940
  H      -5.068829     -5.135089     -0.164011
  H      -2.100070     -8.232720      0.600342
  O      -1.712523     -7.701796      1.328836
  H      -2.426296     -7.488074      1.933665
  H      -5.322924     -5.137830      1.747288
  O      -4.677833     -5.800089      1.382948
  H      -3.805849     -5.435093      1.633170
  H      -4.372192     -2.527635      4.176387
  O      -5.295775     -2.240780      4.009405
  H      -5.188568     -1.448182      3.433632
  H      -5.810504     -3.189933      1.281021
  O      -6.277624     -3.764931      1.944926
  H      -6.086830     -3.302512      2.784512
  H      -5.694276     -8.113053     -0.709013
  O      -4.949979     -8.185782     -0.064668
  H      -4.919628     -7.323195      0.389238
  H      -2.783793     -9.955380     -0.903602
  O      -2.668253     -9.002899     -0.956646
  H      -3.586435     -8.634421     -0.773614
  H      -1.998898     -2.983393      4.624372
  O      -2.876210     -3.413546      4.747339
  H      -2.852769     -4.081765      4.033229
  H      -5.266532     -1.997590      6.985609
  O      -5.936778     -1.488220      6.505665
  H      -5.893702     -1.827634      5.585913
  H      -3.309761     -3.618118      7.914338
  O      -3.583161     -2.934403      7.298680
  H      -3.288868     -3.239413      6.411057
  S      -4.656535     -7.625343      4.240778
  H      -5.241984     -6.414882      4.141456
  H      -5.040330     -7.940632      2.986623
36
Coordinates from ORCA-job neb_19_345_CI_MEP.QMRegion E -2202.352302866109
  H      -2.351590     -3.686159      1.970792
  O      -2.375736     -4.602918      2.315783
  H      -1.427546     -4.833843      2.453784
  H      -4.641932     -5.154497     -1.617926
  O      -5.332395     -4.795520     -1.031379
  H      -5.071987     -5.157415     -0.160756
  H      -2.075043     -8.239056      0.547256
  O      -1.698408     -7.718241      1.288491
  H      -2.400423     -7.596760      1.934097
  H      -5.327559     -5.121736      1.744119
  O      -4.692029     -5.801069      1.392512
  H      -3.812853     -5.448304      1.635346
  H      -4.375287     -2.535977      4.166531
  O      -5.299507     -2.251875      3.999473
  H      -5.193331     -1.457001      3.427075
  H      -5.812207     -3.189739      1.270116
  O      -6.282721     -3.762131      1.934035
  H      -6.089655     -3.300567      2.773683
  H      -5.690545     -8.117782     -0.726168
  O      -4.941736     -8.183860     -0.085498
  H      -4.916335     -7.320155      0.366855
  H      -2.788403     -9.962832     -0.928766
  O      -2.668059     -9.010960     -0.979782
  H      -3.583780     -8.635806     -0.798158
  H      -1.994479     -2.986042      4.607794
  O      -2.873291     -3.411938      4.739596
  H      -2.855802     -4.088555      4.034588
  H      -5.258427     -2.018628      6.983692
  O      -5.927367     -1.504673      6.506251
  H      -5.890681     -1.847279      5.587699
  H      -3.296698     -3.640911      7.900444
  O      -3.573032     -2.951269      7.292752
  H      -3.279951     -3.246998      6.401214
  S      -4.528830     -7.884146      3.998960
  H      -5.129995     -6.681514      3.900733
  H      -4.976844     -8.232691      2.774745
36
Coordinates from ORCA-job neb_19_345_CI_MEP.QMRegion E -2202.357930755295
  H      -2.368023     -3.643042      1.994942
  O      -2.402687     -4.558262      2.346069
  H      -1.458163     -4.808123      2.464956
  H      -4.627865     -5.140725     -1.555050
  O      -5.337732     -4.792455     -0.984617
  H      -5.106474     -5.138603     -0.102878
  H      -2.034653     -8.180402      0.518722
  O      -1.691663     -7.670393      1.281325
  H      -2.338619     -7.822712      1.987320
  H      -5.365915     -5.073261      1.842116
  O      -4.740163     -5.781550      1.526478
  H      -3.851068     -5.411768      1.706809
  H      -4.410987     -2.495084      4.216182
  O      -5.333800     -2.202577      4.054558
  H      -5.221769     -1.415480      3.473600
  H      -5.829945     -3.142609      1.311924
  O      -6.306848     -3.707024      1.976243
  H      -6.124286     -3.245775      2.818712
  H      -5.719075     -8.061613     -0.701334
  O      -4.966235     -8.118901     -0.063106
  H      -4.944984     -7.260369      0.399450
  H      -2.825913     -9.910116     -0.920613
  O      -2.690558     -8.961080     -0.980916
  H      -3.593821     -8.569979     -0.792581
  H      -2.014483     -2.941391      4.638019
  O      -2.895022     -3.364388      4.758067
  H      -2.876120     -4.022821      4.034286
  H      -5.269536     -1.995879      7.047467
  O      -5.937643     -1.485266      6.566740
  H      -5.911461     -1.831069      5.649799
  H      -3.285423     -3.616539      7.929601
  O      -3.583099     -2.934754      7.323255
  H      -3.303093     -3.229193      6.427260
  S      -4.227937     -8.646431      3.228332
  H      -4.664580     -7.377385      3.057667
  H      -4.749044     -8.986383      2.026142
