21
Coordinates from ORCA-job neb_15_207_CI_MEP.QMRegion E -1845.693383404543
  H      -0.743391      8.796924     -2.260158
  O      -0.608166      9.658234     -1.793118
  H       0.109713      9.482509     -1.157534
  H       1.768606      8.350437      0.677907
  O       1.433086      8.632362     -0.205382
  H       2.229214      8.631314     -0.765283
  H       3.681319      7.074205     -1.246311
  O       3.894585      8.012345     -1.461831
  H       4.273643      7.919328     -2.354477
  H       4.939771      8.388614      0.026312
  O       5.247623      8.392767      0.956913
  H       5.478682      7.461384      1.113613
  H       0.329730      8.655654      4.300172
  O       1.000134      7.996659      4.074225
  H       1.203744      7.507035      4.899126
  H       3.605232      8.206012      1.872932
  O       2.785900      7.689503      1.977583
  H       2.377070      7.905248      2.835343
  S       7.453417     10.857001      1.965923
  H       6.597172      9.913740      1.505685
  H       8.350266      9.927307      2.351811
21
Coordinates from ORCA-job neb_15_207_CI_MEP.QMRegion E -1845.692111363819
  H      -0.729287      8.786169     -2.258772
  O      -0.593509      9.645196     -1.787495
  H       0.126903      9.465452     -1.155802
  H       1.797473      8.328785      0.678609
  O       1.462174      8.619320     -0.202828
  H       2.256495      8.610207     -0.765683
  H       3.696485      7.057933     -1.257049
  O       3.910454      7.996455     -1.471756
  H       4.284071      7.904907     -2.367103
  H       4.958423      8.325230      0.006357
  O       5.257254      8.359472      0.938759
  H       5.521972      7.442377      1.119239
  H       0.354574      8.651018      4.299476
  O       1.017800      7.985703      4.072889
  H       1.219885      7.497516      4.899565
  H       3.622705      8.173405      1.864482
  O       2.796611      7.668189      1.977714
  H       2.393171      7.889147      2.836597
  S       6.746613     11.285262      2.039874
  H       5.840706     10.488575      1.435656
  H       7.583494     10.244393      2.228243
21
Coordinates from ORCA-job neb_15_207_CI_MEP.QMRegion E -1845.691653195609
  H      -0.739961      8.783099     -2.262534
  O      -0.599373      9.641446     -1.790406
  H       0.119919      9.457213     -1.158918
  H       1.792654      8.324562      0.671252
  O       1.458111      8.615233     -0.209913
  H       2.252062      8.602671     -0.773762
  H       3.691950      7.055460     -1.253791
  O       3.907950      7.992965     -1.470433
  H       4.285767      7.896409     -2.363764
  H       4.964385      8.324457      0.014356
  O       5.285250      8.360367      0.938919
  H       5.506546      7.433008      1.125369
  H       0.342270      8.650211      4.292102
  O       1.008946      7.987251      4.067275
  H       1.209079      7.498385      4.893676
  H       3.628852      8.174642      1.861444
  O       2.801874      7.669842      1.970013
  H       2.397948      7.887955      2.829391
  S       6.151789     11.535344      2.040187
  H       5.270837     10.770989      1.366147
  H       7.001452     10.493344      2.133805
21
Coordinates from ORCA-job neb_15_207_CI_MEP.QMRegion E -1845.691663684157
  H      -0.749678      8.782811     -2.261014
  O      -0.606024      9.642303     -1.791351
  H       0.111008      9.457245     -1.157607
  H       1.785786      8.322788      0.673154
  O       1.452263      8.617574     -0.207664
  H       2.245867      8.601776     -0.772195
  H       3.686991      7.055771     -1.251136
  O       3.899155      7.994479     -1.467597
  H       4.272966      7.900281     -2.362706
  H       4.966298      8.319656      0.023330
  O       5.278712      8.362979      0.950502
  H       5.520107      7.441465      1.140467
  H       0.330477      8.655264      4.290418
  O       0.995558      7.990180      4.066808
  H       1.195762      7.502259      4.893278
  H       3.614611      8.170361      1.866133
  O       2.785832      7.668116      1.971461
  H       2.379856      7.890786      2.828793
  S       5.496314     11.670569      1.998368
  H       4.687035     10.911539      1.234365
  H       6.421442     10.691999      2.034067
21
Coordinates from ORCA-job neb_15_207_CI_MEP.QMRegion E -1845.691877949976
  H      -0.768312      8.781363     -2.259496
  O      -0.619244      9.640498     -1.789820
  H       0.096233      9.452744     -1.155466
  H       1.782099      8.313428      0.675987
  O       1.448976      8.615129     -0.203821
  H       2.241104      8.591941     -0.770587
  H       3.682031      7.050865     -1.245937
  O       3.893182      7.990638     -1.460469
  H       4.260448      7.899784     -2.358286
  H       4.960726      8.317389      0.034034
  O       5.257601      8.375183      0.965149
  H       5.534152      7.465462      1.161250
  H       0.319906      8.658853      4.287343
  O       0.979351      7.987813      4.064749
  H       1.179425      7.500779      4.891426
  H       3.596907      8.164214      1.869911
  O       2.767871      7.662084      1.974382
  H       2.358416      7.889213      2.829160
  S       4.817863     11.733470      1.928280
  H       4.086054     10.960878      1.098979
  H       5.823586     10.834616      1.918342
21
Coordinates from ORCA-job neb_15_207_CI_MEP.QMRegion E -1845.692467385326
  H      -0.778978      8.775423     -2.259638
  O      -0.626376      9.633233     -1.787306
  H       0.089323      9.441974     -1.155195
  H       1.787307      8.297816      0.677071
  O       1.455674      8.610966     -0.200581
  H       2.244944      8.573648     -0.771216
  H       3.687942      7.041582     -1.235641
  O       3.900865      7.981874     -1.447801
  H       4.264193      7.892736     -2.347412
  H       4.954216      8.337923      0.052332
  O       5.241767      8.404521      0.985702
  H       5.540315      7.503456      1.184589
  H       0.319281      8.657079      4.283709
  O       0.973017      7.980410      4.061339
  H       1.172622      7.494405      4.888525
  H       3.590003      8.166511      1.875274
  O       2.764479      7.657638      1.976704
  H       2.349282      7.886311      2.828582
  S       4.095932     11.704164      1.815408
  H       3.403924     10.918540      0.963776
  H       5.169006     10.889402      1.771551
21
Coordinates from ORCA-job neb_15_207_CI_MEP.QMRegion E -1845.693662587409
  H      -0.737322      8.771231     -2.253472
  O      -0.588929      9.625220     -1.774635
  H       0.132983      9.433335     -1.150459
  H       1.845827      8.282921      0.685785
  O       1.518385      8.612830     -0.189985
  H       2.306282      8.561491     -0.762763
  H       3.751256      7.038999     -1.206787
  O       3.970417      7.977879     -1.416630
  H       4.328490      7.890032     -2.318938
  H       4.977102      8.420601      0.092521
  O       5.260360      8.501819      1.025864
  H       5.579308      7.610227      1.230488
  H       0.382493      8.663895      4.289678
  O       1.024274      7.977988      4.063938
  H       1.224795      7.494674      4.893669
  H       3.628492      8.198920      1.884618
  O       2.814302      7.671028      1.987717
  H       2.390215      7.903429      2.835035
  S       3.059436     11.498636      1.605969
  H       2.376974     10.663968      0.789983
  H       4.183041     10.761409      1.496629
