24
Coordinates from ORCA-job neb_45_84_CI_MEP.QMRegion E -1917.022579999700
  H       4.188549      5.564142      0.372517
  O       4.556515      5.639814      1.271216
  H       3.848678      6.122632      1.744449
  H       3.968001      4.669903      6.349013
  O       4.095915      5.381120      5.708850
  H       3.511248      5.115652      4.954920
  H       5.465563      3.609764      3.591409
  O       6.113006      3.928508      4.243832
  H       5.601253      4.552502      4.784591
  H       3.667687      7.093998     -1.186474
  O       3.883223      8.030411     -1.396706
  H       4.217952      7.953203     -2.306140
  H       4.553058      3.955949      1.703390
  O       4.329910      3.050937      2.013790
  H       5.002855      2.440759      1.681547
  H       4.805161      8.517743      0.126952
  O       5.123103      8.570134      1.053419
  H       5.465524      7.676922      1.202501
  H       3.477952      8.254129      1.960256
  O       2.707920      7.660291      2.039962
  H       2.198064      7.901836      2.836484
  S       7.218160     11.325772      1.049464
  H       7.127540     11.272858     -0.294870
  H       6.456323     10.214201      1.191429
24
Coordinates from ORCA-job neb_45_84_CI_MEP.QMRegion E -1917.021178310886
  H       4.142702      5.613885      0.367420
  O       4.500356      5.705807      1.269925
  H       3.776965      6.178695      1.732711
  H       3.929043      4.717942      6.329440
  O       4.069975      5.425440      5.687879
  H       3.489484      5.157745      4.929438
  H       5.387323      3.622017      3.601199
  O       6.046804      3.935951      4.243850
  H       5.550103      4.570115      4.786631
  H       3.663106      7.123141     -1.222578
  O       3.854861      8.059537     -1.447224
  H       4.183101      7.976564     -2.358330
  H       4.530293      3.999409      1.691255
  O       4.318863      3.088662      1.991847
  H       5.010496      2.493631      1.671686
  H       4.781610      8.627863      0.123408
  O       5.067541      8.589933      1.057494
  H       5.306350      7.653751      1.151007
  H       3.439354      8.303940      1.944859
  O       2.677316      7.699785      2.040176
  H       2.163198      7.942722      2.833883
  S       8.196508     10.131277      1.381453
  H       7.802131     10.098083      0.092397
  H       7.020424      9.596353      1.772774
24
Coordinates from ORCA-job neb_45_84_CI_MEP.QMRegion E -1917.020506675052
  H       4.173377      5.599800      0.367978
  O       4.544954      5.686467      1.264422
  H       3.838996      6.174251      1.735500
  H       3.948161      4.688796      6.329458
  O       4.082864      5.402069      5.692962
  H       3.500707      5.138563      4.934921
  H       5.432761      3.605460      3.587565
  O       6.080590      3.924749      4.240025
  H       5.571207      4.553394      4.777191
  H       3.656557      7.108034     -1.224177
  O       3.848351      8.042076     -1.461646
  H       4.195219      7.945299     -2.365348
  H       4.558313      3.989654      1.691439
  O       4.343060      3.080214      1.995190
  H       5.023799      2.478753      1.663137
  H       4.746966      8.608902      0.042773
  O       5.077583      8.658110      0.964232
  H       5.401045      7.755948      1.102669
  H       3.462761      8.315211      1.924308
  O       2.711487      7.700425      2.033542
  H       2.200011      7.943518      2.828209
  S       8.541588      9.257009      1.368196
  H       7.491275      9.428363      0.540873
  H       7.712370      9.001992      2.399973
24
Coordinates from ORCA-job neb_45_84_CI_MEP.QMRegion E -1917.020944889211
  H       4.206157      5.551254      0.352909
  O       4.580446      5.627293      1.249842
  H       3.870803      6.100295      1.729201
  H       3.927892      4.638358      6.359440
  O       4.076887      5.351109      5.725460
  H       3.494701      5.101468      4.964049
  H       5.465290      3.609247      3.586173
  O       6.099733      3.935246      4.248001
  H       5.567662      4.536997      4.795304
  H       3.674623      7.103717     -1.197680
  O       3.886244      8.036929     -1.420401
  H       4.227977      7.946069     -2.326547
  H       4.572529      3.944620      1.692032
  O       4.338070      3.046431      2.012508
  H       5.000780      2.424344      1.680630
  H       4.852743      8.526603      0.096721
  O       5.179509      8.536188      1.020240
  H       5.432668      7.609333      1.145321
  H       3.501339      8.243051      1.926435
  O       2.727356      7.654896      2.019278
  H       2.225296      7.905054      2.817128
  S       8.776052      8.530322      1.579210
  H       7.660657      8.956495      0.951878
  H       8.057144      7.706506      2.368198
24
Coordinates from ORCA-job neb_45_84_CI_MEP.QMRegion E -1917.019155327318
  H       4.209950      5.576526      0.355795
  O       4.589208      5.648109      1.249459
  H       3.905775      6.164108      1.722019
  H       3.924245      4.668706      6.342474
  O       4.075676      5.379186      5.706629
  H       3.494318      5.125966      4.944392
  H       5.439774      3.620568      3.589266
  O       6.083812      3.938755      4.246065
  H       5.563266      4.550126      4.794068
  H       3.672879      7.090041     -1.197680
  O       3.882439      8.024891     -1.418145
  H       4.224633      7.941077     -2.324330
  H       4.545055      3.977227      1.690536
  O       4.328393      3.069303      2.004213
  H       5.005552      2.462674      1.674831
  H       4.721968      8.609130      0.092159
  O       4.979428      8.842130      1.010176
  H       5.526329      8.098123      1.283733
  H       3.453609      8.307995      1.895760
  O       2.718711      7.671348      2.017717
  H       2.210563      7.913446      2.813757
  S       8.561845      8.429575      1.957803
  H       7.887388      8.663331      0.813716
  H       8.107700      7.161627      2.039037
24
Coordinates from ORCA-job neb_45_84_CI_MEP.QMRegion E -1917.021385600666
  H       4.207896      5.443301      0.363147
  O       4.578535      5.478915      1.261753
  H       3.921754      6.028854      1.732642
  H       3.853416      4.542866      6.392305
  O       4.043422      5.258031      5.772194
  H       3.464163      5.046314      4.996857
  H       5.391579      3.542637      3.596055
  O       6.034612      3.902138      4.233902
  H       5.488998      4.463790      4.811901
  H       3.675676      7.052751     -1.161070
  O       3.896483      7.985339     -1.385624
  H       4.229972      7.893580     -2.294062
  H       4.481506      3.872476      1.736578
  O       4.260804      2.962244      2.052106
  H       4.936907      2.356876      1.718476
  H       4.692019      8.551611      0.162954
  O       4.826308      8.856822      1.084228
  H       5.637470      8.423479      1.383054
  H       3.452663      8.135757      1.878135
  O       2.689080      7.525937      1.998399
  H       2.204134      7.787321      2.800539
  S       8.083961      8.127074      1.967360
  H       8.079264      7.911995      0.637312
  H       7.893691      6.819950      2.240509
24
Coordinates from ORCA-job neb_45_84_CI_MEP.QMRegion E -1917.027129851826
  H       4.194490      5.463447      0.284836
  O       4.624523      5.510014      1.158763
  H       4.033424      6.110696      1.652187
  H       3.936627      4.668104      6.325101
  O       4.094748      5.374646      5.686404
  H       3.504006      5.128101      4.927659
  H       5.491215      3.636514      3.571885
  O       6.114912      3.970582      4.243125
  H       5.557843      4.545017      4.798813
  H       3.723348      7.099107     -1.146716
  O       3.947881      8.028111     -1.366104
  H       4.268695      7.938334     -2.279595
  H       4.545908      3.918791      1.685384
  O       4.347308      3.022845      2.047379
  H       5.003179      2.404466      1.697044
  H       4.873946      8.618246      0.205544
  O       5.027664      8.890099      1.131401
  H       5.796266      8.375351      1.419681
  H       3.540431      8.228010      1.887042
  O       2.779237      7.613263      1.984784
  H       2.282245      7.852743      2.786146
  S       7.717286      6.711978      1.940119
  H       6.878997      6.083503      1.090818
  H       7.235540      5.982696      2.972987
