33
Coordinates from ORCA-job neb_178_278_CI_MEP.QMRegion E -2131.018028511496
  H      -3.451980      6.333051     -0.500341
  O      -3.321586      7.003433     -1.229797
  H      -3.108688      7.853621     -0.795134
  H      -3.152218      4.882498      1.131792
  O      -3.910505      5.286098      0.658934
  H      -4.327713      5.807468      1.392944
  H      -1.843861      9.659412     -0.753553
  O      -2.622646      9.382292     -0.207469
  H      -3.347718     10.002373     -0.359375
  H      -2.287702      8.694456      1.339435
  O      -2.167103      8.121839      2.123900
  H      -1.396254      7.559570      1.907765
  H      -4.427005      6.392241      3.524751
  O      -4.579329      6.842420      2.672953
  H      -3.740529      7.327613      2.529652
  H      -1.825232      8.962675      3.618278
  O      -1.581484      9.267066      4.519464
  H      -2.425361      9.326605      5.002884
  H      -3.694461      5.261049      5.815357
  O      -3.728456      6.038871      5.229534
  H      -2.800468      6.371311      5.324411
  H      -5.594086      3.701413      5.374394
  O      -6.302076      4.070742      5.947535
  H      -6.027530      4.975857      6.119196
  H      -3.890085      8.829335      6.945104
  O      -4.023878      8.792186      5.993174
  H      -4.125046      7.838475      5.814488
  H      -4.485946      9.073161     -3.112638
  O      -5.087546      8.349015     -2.895679
  H      -4.562697      7.785785     -2.290001
  S      -5.991873      9.600095      0.300594
  H      -6.008387      8.962959     -0.896723
  H      -5.784658      8.458963      0.994409
33
Coordinates from ORCA-job neb_178_278_CI_MEP.QMRegion E -2131.016019775788
  H      -3.423379      6.341020     -0.508248
  O      -3.301461      7.011786     -1.236107
  H      -3.115921      7.868232     -0.805361
  H      -3.139129      4.861243      1.102865
  O      -3.893578      5.272595      0.632148
  H      -4.304297      5.787212      1.372474
  H      -1.824450      9.650319     -0.758878
  O      -2.627421      9.415607     -0.224868
  H      -3.308973     10.063517     -0.432230
  H      -2.286102      8.698271      1.322792
  O      -2.151932      8.118579      2.098468
  H      -1.377470      7.562902      1.875828
  H      -4.377083      6.359770      3.538256
  O      -4.522353      6.799892      2.678622
  H      -3.678760      7.276845      2.528665
  H      -1.793940      8.949748      3.595121
  O      -1.558279      9.255400      4.498039
  H      -2.410288      9.328969      4.964588
  H      -3.692149      5.253356      5.816345
  O      -3.722664      6.034825      5.235161
  H      -2.794767      6.367274      5.337279
  H      -5.603314      3.693350      5.359664
  O      -6.309112      4.064900      5.934514
  H      -6.034039      4.971762      6.095638
  H      -4.178674      9.023488      6.731647
  O      -4.081974      8.831944      5.794666
  H      -4.137341      7.859701      5.741346
  H      -4.440268      9.081459     -3.158268
  O      -5.062341      8.374309     -2.946772
  H      -4.580638      7.825662     -2.299320
  S      -6.169895      9.585790      1.044380
  H      -6.750339      8.931814      0.015124
  H      -5.831441      8.437883      1.674983
33
Coordinates from ORCA-job neb_178_278_CI_MEP.QMRegion E -2131.015203650678
  H      -3.416792      6.353396     -0.507923
  O      -3.302969      7.023734     -1.235783
  H      -3.137590      7.883614     -0.806749
  H      -3.142006      4.855407      1.104513
  O      -3.891920      5.270057      0.629533
  H      -4.305941      5.783845      1.366200
  H      -1.818360      9.651328     -0.753268
  O      -2.636979      9.451468     -0.228817
  H      -3.286787     10.116935     -0.476640
  H      -2.303335      8.708611      1.325923
  O      -2.157087      8.121064      2.092513
  H      -1.381561      7.570839      1.859464
  H      -4.359076      6.368331      3.556795
  O      -4.513153      6.793594      2.691021
  H      -3.675086      7.276057      2.525384
  H      -1.778569      8.942508      3.588869
  O      -1.529202      9.253396      4.486528
  H      -2.374258      9.365096      4.953588
  H      -3.702159      5.259680      5.828906
  O      -3.725960      6.042757      5.249536
  H      -2.794856      6.367401      5.352970
  H      -5.611586      3.682387      5.355986
  O      -6.320352      4.053187      5.928067
  H      -6.052219      4.963570      6.080242
  H      -4.494423      9.115696      6.518588
  O      -4.124946      8.837779      5.676296
  H      -4.148844      7.863261      5.704788
  H      -4.398048      9.086543     -3.190051
  O      -5.049695      8.403377     -2.987685
  H      -4.617246      7.861940     -2.303303
  S      -6.234313      9.516195      1.522464
  H      -7.153572      8.816212      0.822733
  H      -5.817754      8.415737      2.195412
33
Coordinates from ORCA-job neb_178_278_CI_MEP.QMRegion E -2131.014292728541
  H      -3.434034      6.396568     -0.496176
  O      -3.312705      7.058069     -1.229899
  H      -3.136803      7.919186     -0.808372
  H      -3.149304      4.893676      1.118867
  O      -3.906240      5.301012      0.646964
  H      -4.323493      5.807948      1.384410
  H      -1.815927      9.684681     -0.752233
  O      -2.639146      9.502671     -0.228064
  H      -3.280286     10.166749     -0.502067
  H      -2.292552      8.747650      1.328141
  O      -2.152843      8.155036      2.091004
  H      -1.380806      7.599573      1.859317
  H      -4.345057      6.405941      3.599375
  O      -4.509442      6.823957      2.730040
  H      -3.675594      7.308172      2.551809
  H      -1.779775      8.976829      3.600706
  O      -1.513902      9.272145      4.497406
  H      -2.348034      9.415723      4.972444
  H      -3.710009      5.286715      5.843849
  O      -3.741710      6.082401      5.282335
  H      -2.805182      6.397552      5.374132
  H      -5.608397      3.707055      5.362377
  O      -6.317623      4.075539      5.934671
  H      -6.044102      4.981419      6.104192
  H      -4.842911      9.242848      6.120637
  O      -4.003986      8.885107      5.820556
  H      -4.119341      7.918995      5.815594
  H      -4.407161      9.115504     -3.193264
  O      -5.054797      8.427618     -2.993570
  H      -4.621939      7.892704     -2.304500
  S      -6.381444      9.539173      1.878747
  H      -7.408083      8.824303      1.369980
  H      -5.788756      8.430134      2.389371
33
Coordinates from ORCA-job neb_178_278_CI_MEP.QMRegion E -2131.014414951110
  H      -3.430499      6.360802     -0.488102
  O      -3.304175      7.026257     -1.218686
  H      -3.128838      7.885031     -0.793299
  H      -3.146818      4.865243      1.117433
  O      -3.904039      5.277385      0.650519
  H      -4.320449      5.775084      1.394721
  H      -1.814539      9.656382     -0.749077
  O      -2.644108      9.477860     -0.232836
  H      -3.281691     10.132354     -0.535517
  H      -2.299714      8.710702      1.331014
  O      -2.161134      8.115886      2.091068
  H      -1.379423      7.570923      1.864118
  H      -4.336160      6.362753      3.616234
  O      -4.493428      6.778744      2.742976
  H      -3.652003      7.250462      2.563906
  H      -1.803720      8.950039      3.605677
  O      -1.557788      9.257622      4.502822
  H      -2.404732      9.353362      4.974517
  H      -3.705939      5.271595      5.848468
  O      -3.741994      6.068262      5.287506
  H      -2.807000      6.388138      5.377153
  H      -5.613039      3.697317      5.365471
  O      -6.323116      4.065461      5.936800
  H      -6.044785      4.967981      6.116540
  H      -4.879515      9.246631      5.745264
  O      -4.003420      8.886152      5.909000
  H      -4.116719      7.920614      5.859418
  H      -4.406304      9.084833     -3.180325
  O      -5.050137      8.396243     -2.972905
  H      -4.607705      7.855659     -2.293947
  S      -6.511174      9.470947      2.212661
  H      -7.636213      8.748988      2.020441
  H      -5.770840      8.356441      2.447727
33
Coordinates from ORCA-job neb_178_278_CI_MEP.QMRegion E -2131.016146901071
  H      -3.436202      6.363116     -0.477884
  O      -3.306412      7.026492     -1.209442
  H      -3.130871      7.885385     -0.785031
  H      -3.152643      4.867937      1.127077
  O      -3.912296      5.279461      0.663178
  H      -4.332145      5.768605      1.409933
  H      -1.810010      9.655878     -0.742919
  O      -2.644865      9.489068     -0.230550
  H      -3.271466     10.145652     -0.549529
  H      -2.308693      8.708205      1.343449
  O      -2.170749      8.108580      2.099121
  H      -1.386351      7.567913      1.870951
  H      -4.330667      6.362758      3.647408
  O      -4.494706      6.769754      2.769448
  H      -3.655749      7.242311      2.579792
  H      -1.819404      8.949174      3.622402
  O      -1.577761      9.258269      4.519471
  H      -2.428833      9.344543      4.988817
  H      -3.708846      5.279173      5.859139
  O      -3.750244      6.081541      5.307517
  H      -2.814825      6.401854      5.391435
  H      -5.613498      3.698011      5.367284
  O      -6.325951      4.063165      5.937458
  H      -6.048011      4.964162      6.125680
  H      -4.905004      9.200697      5.429598
  O      -4.089612      8.930106      5.855762
  H      -4.142456      7.955384      5.879004
  H      -4.401981      9.082579     -3.175357
  O      -5.052138      8.399775     -2.968037
  H      -4.616443      7.858119     -2.285726
  S      -6.565812      9.390408      2.673113
  H      -7.698341      8.655829      2.706057
  H      -5.777151      8.280239      2.690803
33
Coordinates from ORCA-job neb_178_278_CI_MEP.QMRegion E -2131.019243486811
  H      -3.436426      6.377355     -0.484803
  O      -3.306787      7.038867     -1.218044
  H      -3.119710      7.897672     -0.797406
  H      -3.151811      4.886125      1.129946
  O      -3.911682      5.291828      0.660402
  H      -4.339361      5.779520      1.402505
  H      -1.806144      9.665166     -0.759417
  O      -2.652207      9.509243     -0.261448
  H      -3.273429     10.149007     -0.624417
  H      -2.308167      8.719700      1.312888
  O      -2.184654      8.110548      2.062210
  H      -1.397943      7.569406      1.844036
  H      -4.321133      6.365611      3.649344
  O      -4.517690      6.775024      2.777025
  H      -3.697621      7.273433      2.574987
  H      -1.814727      8.947312      3.594257
  O      -1.597259      9.253059      4.497656
  H      -2.468665      9.344694      4.933355
  H      -3.714400      5.287822      5.848856
  O      -3.762085      6.095143      5.304805
  H      -2.832283      6.426905      5.399009
  H      -5.622370      3.708374      5.362526
  O      -6.332646      4.076256      5.933206
  H      -6.051365      4.977195      6.117566
  H      -4.925781      9.221806      5.125938
  O      -4.154120      9.019707      5.680854
  H      -4.199780      8.057165      5.793953
  H      -4.373289      9.083070     -3.217757
  O      -5.023395      8.403699     -2.999301
  H      -4.582923      7.865238     -2.317284
  S      -6.690930      9.188883      3.409715
  H      -7.569977      8.387263      4.045508
  H      -5.904652      8.135420      3.040920
