15
Coordinates from ORCA-job neb_2_429_CI_MEP.QMRegion E -1703.017272016308
  H      -0.566171      8.796178     -2.230818
  O      -0.395218      9.548948     -1.620475
  H       0.347552      9.251504     -1.050790
  H      -1.823379      9.552198     -0.771401
  O      -2.714188      9.458486     -0.351688
  H      -3.287787     10.031609     -0.867155
  H      -2.134839     10.960426     -3.287909
  O      -3.057140     10.684704     -3.151623
  H      -3.559148     11.410801     -3.534669
  H      -4.139143      8.832869     -3.456359
  O      -4.789146      8.194351     -3.140354
  H      -4.324246      7.739277     -2.409229
  S      -0.050312     12.350104     -3.243236
  H       0.750989     11.837455     -4.198240
  H       0.117468     11.264352     -2.443133
15
Coordinates from ORCA-job neb_2_429_CI_MEP.QMRegion E -1703.016024722808
  H      -0.509385      8.770483     -2.282819
  O      -0.336316      9.576610     -1.745226
  H       0.403429      9.311297     -1.156974
  H      -1.732454      9.567551     -0.842091
  O      -2.593621      9.461357     -0.361995
  H      -3.202251     10.113464     -0.711662
  H      -1.854595      9.851083     -3.749738
  O      -2.717750     10.130211     -4.070605
  H      -2.759087     11.055406     -3.792844
  H      -4.132948      8.822995     -3.568653
  O      -4.799891      8.248684     -3.163071
  H      -4.317456      7.791320     -2.449323
  S      -1.590236     12.843278     -2.152787
  H      -0.771535     13.294928     -3.122458
  H      -0.743349     11.847746     -1.816936
15
Coordinates from ORCA-job neb_2_429_CI_MEP.QMRegion E -1703.013288358221
  H      -0.618796      8.785505     -2.289835
  O      -0.464453      9.563808     -1.702138
  H       0.290761      9.295252     -1.139162
  H      -1.860364      9.574493     -0.825396
  O      -2.715489      9.457814     -0.333575
  H      -3.349597     10.096652     -0.661802
  H      -2.279395     10.312132     -3.477687
  O      -2.902537     10.025222     -4.156169
  H      -3.311102     10.851882     -4.432823
  H      -4.241788      8.761385     -3.529575
  O      -4.920119      8.221674     -3.093605
  H      -4.427561      7.747003     -2.397031
  S      -2.006298     12.678914     -1.899200
  H      -1.362504     13.327433     -2.889097
  H      -0.963281     11.856082     -1.665852
15
Coordinates from ORCA-job neb_2_429_CI_MEP.QMRegion E -1703.014987918199
  H      -0.635522      8.860043     -2.296652
  O      -0.459516      9.592361     -1.662316
  H       0.291195      9.282419     -1.114836
  H      -1.854547      9.573509     -0.812125
  O      -2.707700      9.448352     -0.314879
  H      -3.342268     10.102377     -0.608302
  H      -2.758248     10.853062     -3.376809
  O      -2.979565     10.094871     -3.941762
  H      -2.780110     10.395874     -4.831583
  H      -4.326602      8.819594     -3.469292
  O      -4.962165      8.214106     -3.059460
  H      -4.432556      7.743580     -2.387093
  S      -2.045855     12.609448     -1.845694
  H      -1.460563     13.323585     -2.826415
  H      -0.990604     11.776830     -1.709281
15
Coordinates from ORCA-job neb_2_429_CI_MEP.QMRegion E -1703.014374531518
  H      -0.628220      8.816708     -2.301730
  O      -0.453285      9.610589     -1.745676
  H       0.300460      9.341843     -1.183151
  H      -1.824646      9.613056     -0.810194
  O      -2.680906      9.474728     -0.327150
  H      -3.243694     10.226876     -0.520309
  H      -2.570481     10.584651     -3.243136
  O      -3.043286     10.269449     -4.025003
  H      -2.352136      9.920282     -4.595531
  H      -4.346730      8.889540     -3.486824
  O      -4.960962      8.252941     -3.090836
  H      -4.429904      7.798447     -2.411285
  S      -2.432529     12.801111     -1.547727
  H      -2.196178     13.089678     -2.843054
  H      -1.141107     12.501074     -1.306215
15
Coordinates from ORCA-job neb_2_429_CI_MEP.QMRegion E -1703.015678925280
  H      -0.628638      8.771178     -2.288366
  O      -0.479092      9.594978     -1.766740
  H       0.287472      9.373448     -1.202272
  H      -1.839588      9.608897     -0.772712
  O      -2.705054      9.480952     -0.313494
  H      -3.198727     10.300204     -0.428003
  H      -2.187529     10.179293     -3.247602
  O      -2.927890     10.300984     -3.856286
  H      -2.537433     10.178899     -4.724898
  H      -4.358689      8.901996     -3.435081
  O      -4.975545      8.249777     -3.075943
  H      -4.459415      7.794318     -2.384710
  S      -2.988867     12.813865     -1.326649
  H      -2.969099     12.443486     -2.625055
  H      -1.646346     12.738267     -1.221621
15
Coordinates from ORCA-job neb_2_429_CI_MEP.QMRegion E -1703.018145707018
  H      -0.623036      8.737546     -2.227655
  O      -0.474368      9.567892     -1.715208
  H       0.305223      9.368952     -1.159120
  H      -1.851180      9.608896     -0.723216
  O      -2.715137      9.457775     -0.274217
  H      -3.263765     10.243048     -0.410011
  H      -1.785835     10.280929     -3.052050
  O      -2.552886     10.349879     -3.642054
  H      -2.163058     10.445790     -4.515814
  H      -4.142191      8.807164     -3.470266
  O      -4.836885      8.239033     -3.116063
  H      -4.392353      7.780028     -2.376149
  S      -4.224979     12.287160     -1.347710
  H      -3.734199     11.791231     -2.508227
  H      -3.159382     13.094355     -1.169547
