27
Coordinates from ORCA-job neb_63_64_CI_MEP.QMRegion E -1988.371910720346
  H       4.451971     -2.612032      5.687022
  O       4.125618     -3.216674      6.383091
  H       4.471393     -4.095908      6.113805
  H       4.985379     -2.160324      3.604782
  O       4.977915     -1.466690      4.300604
  H       4.170986     -0.923950      4.106366
  H       1.978951     -0.836192      5.161142
  O       1.506567     -1.410835      5.793060
  H       1.460176     -0.980218      6.666992
  H       4.325696     -0.241159      6.878672
  O       4.590452      0.589293      7.287417
  H       5.279294      0.946817      6.687412
  H      -0.182882      3.325792      8.954299
  O       0.082353      2.426703      9.255866
  H      -0.711203      2.140402      9.765205
  H       2.035054      2.327588      8.624752
  O       2.719759      2.560979      7.984504
  H       3.302540      1.785735      7.888382
  H       7.191306     -2.820001      6.828484
  O       7.308540     -3.265869      5.974106
  H       6.633618     -3.954743      5.961739
  H       0.527084      0.415537      8.602662
  O       0.537525     -0.443243      8.165658
  H      -0.410779     -0.645873      8.035802
  S       6.109278     -2.243942      8.946904
  H       5.768567     -0.964625      8.672262
  H       5.105631     -2.722863      8.162794
27
Coordinates from ORCA-job neb_63_64_CI_MEP.QMRegion E -1988.365478607011
  H       4.468247     -2.631783      5.626777
  O       4.159662     -3.192531      6.363884
  H       4.484357     -4.086845      6.130342
  H       5.005433     -2.176189      3.563981
  O       4.993547     -1.480330      4.259540
  H       4.182854     -0.943882      4.070160
  H       1.997516     -0.862883      5.118657
  O       1.516650     -1.433309      5.748787
  H       1.509267     -1.019656      6.630296
  H       4.438777     -0.325517      6.793729
  O       4.663081      0.509134      7.219101
  H       5.334359      0.910136      6.624053
  H      -0.130505      3.328163      8.929137
  O       0.128879      2.424850      9.222026
  H      -0.657976      2.145256      9.741457
  H       2.152561      2.271864      8.545180
  O       2.820928      2.505633      7.889850
  H       3.406782      1.730725      7.792629
  H       7.097407     -2.799460      6.767380
  O       7.283954     -3.296659      5.966605
  H       6.612311     -3.989470      5.943840
  H       0.606779      0.385814      8.559471
  O       0.592022     -0.479864      8.137350
  H      -0.360589     -0.664108      8.019260
  S       5.246932     -1.846216      9.777290
  H       5.306247     -0.706433      9.053451
  H       4.284857     -2.350254      8.976174
27
Coordinates from ORCA-job neb_63_64_CI_MEP.QMRegion E -1988.364043021521
  H       4.453826     -2.629011      5.632921
  O       4.157599     -3.195853      6.369900
  H       4.481021     -4.087802      6.125065
  H       5.005440     -2.174149      3.574100
  O       4.995301     -1.477492      4.268605
  H       4.186732     -0.937749      4.077263
  H       1.996953     -0.857779      5.141818
  O       1.513951     -1.430787      5.767337
  H       1.486503     -1.014883      6.648252
  H       4.416453     -0.313176      6.796223
  O       4.640267      0.522331      7.219393
  H       5.323925      0.915178      6.634232
  H      -0.144990      3.317200      8.937066
  O       0.113060      2.413378      9.228846
  H      -0.676121      2.132315      9.745331
  H       2.113776      2.266868      8.579306
  O       2.778715      2.501292      7.920207
  H       3.366522      1.729475      7.820016
  H       7.056245     -2.765301      6.729323
  O       7.282063     -3.292368      5.959283
  H       6.613798     -3.988780      5.933240
  H       0.579033      0.377247      8.576888
  O       0.569302     -0.490840      8.158997
  H      -0.383150     -0.674419      8.033786
  S       4.876175     -1.664104     10.037999
  H       5.156070     -0.671146      9.168383
  H       3.940558     -2.177324      9.212585
27
Coordinates from ORCA-job neb_63_64_CI_MEP.QMRegion E -1988.363991842479
  H       4.429746     -2.629606      5.635549
  O       4.142787     -3.181561      6.387990
  H       4.459857     -4.077668      6.155018
  H       4.993388     -2.172185      3.576460
  O       4.983763     -1.477601      4.272795
  H       4.175956     -0.935225      4.081756
  H       1.988592     -0.854498      5.147133
  O       1.506505     -1.429040      5.771614
  H       1.479644     -1.013154      6.652809
  H       4.424847     -0.353238      6.807895
  O       4.647463      0.487224      7.221826
  H       5.318232      0.885884      6.626321
  H      -0.145089      3.330457      8.933004
  O       0.115773      2.427926      9.227036
  H      -0.671168      2.147840      9.746625
  H       2.124054      2.267179      8.553322
  O       2.794190      2.487977      7.894878
  H       3.373550      1.708231      7.806975
  H       6.986994     -2.754037      6.691908
  O       7.245624     -3.311287      5.954313
  H       6.576834     -4.007536      5.925918
  H       0.585427      0.377585      8.592966
  O       0.568557     -0.481945      8.158227
  H      -0.385063     -0.660564      8.034850
  S       4.450987     -1.376555     10.263228
  H       4.940143     -0.599977      9.271824
  H       3.603270     -1.995646      9.415192
27
Coordinates from ORCA-job neb_63_64_CI_MEP.QMRegion E -1988.364092016198
  H       4.417153     -2.626233      5.635812
  O       4.138357     -3.176612      6.392675
  H       4.453713     -4.073088      6.159688
  H       4.986392     -2.169388      3.579909
  O       4.979083     -1.475495      4.276672
  H       4.171950     -0.930780      4.086393
  H       1.983670     -0.851155      5.157610
  O       1.501045     -1.428676      5.778501
  H       1.466572     -1.014848      6.660891
  H       4.426567     -0.366242      6.812734
  O       4.650951      0.472877      7.227751
  H       5.313835      0.876823      6.627675
  H      -0.149889      3.329089      8.935424
  O       0.109934      2.425836      9.227648
  H      -0.677649      2.145962      9.746580
  H       2.118019      2.257801      8.559556
  O       2.783825      2.472165      7.894632
  H       3.364136      1.692501      7.815679
  H       6.940077     -2.727439      6.658821
  O       7.234111     -3.308550      5.953635
  H       6.566692     -4.006415      5.918912
  H       0.581800      0.366547      8.601263
  O       0.560137     -0.494362      8.169171
  H      -0.394460     -0.666006      8.040715
  S       4.025456     -1.048265     10.427070
  H       4.731526     -0.561432      9.383705
  H       3.214235     -1.751746      9.609881
27
Coordinates from ORCA-job neb_63_64_CI_MEP.QMRegion E -1988.364826687929
  H       4.396356     -2.624049      5.640091
  O       4.123208     -3.171740      6.401309
  H       4.439468     -4.068114      6.171202
  H       4.975279     -2.167844      3.588915
  O       4.970028     -1.474726      4.285878
  H       4.163174     -0.927824      4.096094
  H       1.974169     -0.849546      5.172357
  O       1.489963     -1.429499      5.789229
  H       1.450342     -1.019328      6.673456
  H       4.430566     -0.391923      6.835296
  O       4.643456      0.455964      7.238415
  H       5.305299      0.859150      6.638126
  H      -0.160284      3.326704      8.941163
  O       0.098769      2.423095      9.232211
  H      -0.689657      2.143818      9.750649
  H       2.114759      2.242321      8.571284
  O       2.768486      2.452467      7.893120
  H       3.352378      1.675485      7.820582
  H       6.878393     -2.707568      6.629235
  O       7.210482     -3.307187      5.956575
  H       6.550094     -4.011446      5.915193
  H       0.572645      0.358842      8.611415
  O       0.545223     -0.508125      8.190780
  H      -0.410491     -0.670968      8.054685
  S       3.581730     -0.672217     10.532939
  H       4.440264     -0.501598      9.504227
  H       2.763122     -1.446958      9.791305
27
Coordinates from ORCA-job neb_63_64_CI_MEP.QMRegion E -1988.366006582095
  H       4.419347     -2.628235      5.626477
  O       4.155428     -3.168381      6.396427
  H       4.468669     -4.067500      6.171194
  H       4.986992     -2.165989      3.583526
  O       4.978184     -1.475443      4.283163
  H       4.170391     -0.928992      4.095973
  H       1.987352     -0.863278      5.169823
  O       1.492575     -1.446019      5.775639
  H       1.471116     -1.060430      6.669923
  H       4.502902     -0.454797      6.877813
  O       4.681963      0.412428      7.255418
  H       5.328462      0.824745      6.646003
  H      -0.159887      3.302505      8.943999
  O       0.090837      2.393178      9.221256
  H      -0.697634      2.116270      9.741010
  H       2.167768      2.173514      8.575051
  O       2.774208      2.391923      7.857014
  H       3.389325      1.638701      7.792400
  H       6.847702     -2.673137      6.581023
  O       7.225903     -3.291026      5.950381
  H       6.580570     -4.008480      5.904196
  H       0.579255      0.332282      8.565167
  O       0.542805     -0.564096      8.209452
  H      -0.413798     -0.717752      8.065637
  S       2.969028     -0.105927     10.609804
  H       3.923264     -0.386001      9.696632
  H       2.075555     -0.920714     10.008512
