30
Coordinates from ORCA-job neb_12_204_CI_MEP.QMRegion E -2059.691920902531
  H       0.270226      6.821985      2.737409
  O      -0.024126      6.578231      1.842725
  H       0.634712      5.904441      1.561049
  H      -0.515861      8.810071     -2.204228
  O      -0.328679      9.581662     -1.620246
  H       0.409574      9.287429     -1.037231
  H      -1.739019      9.568540     -0.740964
  O      -2.634633      9.500627     -0.315235
  H      -3.187377     10.067835     -0.865998
  H      -2.477370      8.762401      1.304172
  O      -2.299982      8.180131      2.064646
  H      -1.593279      7.567569      1.786720
  H      -1.897785      8.932905      3.577304
  O      -1.650180      9.237261      4.481920
  H      -2.504251      9.275313      4.959903
  H      -2.237296     10.778756     -3.213896
  O      -3.174237     10.692983     -2.984567
  H      -3.569718     11.483154     -3.362951
  H       1.952141      8.263502      0.767170
  O       1.660731      8.540523     -0.136638
  H       2.482769      8.537566     -0.664343
  H       0.427824      8.653369      4.413419
  O       1.074348      7.979496      4.154899
  H       1.303920      7.504474      4.984100
  H       3.710103      8.213988      1.991166
  O       2.902505      7.671122      2.104694
  H       2.478826      7.910889      2.948652
  S      -0.092257     12.387797     -3.316691
  H       0.141805     11.290471     -2.548004
  H       0.810585     12.011840     -4.244163
30
Coordinates from ORCA-job neb_12_204_CI_MEP.QMRegion E -2059.688298248499
  H       0.273581      6.813242      2.724877
  O      -0.025656      6.567847      1.832268
  H       0.629966      5.889943      1.551393
  H      -0.606850      8.782299     -2.199169
  O      -0.432509      9.555518     -1.610976
  H       0.321634      9.267707     -1.051168
  H      -1.798167      9.553831     -0.745017
  O      -2.685385      9.491698     -0.285650
  H      -3.265216     10.058434     -0.806077
  H      -2.482769      8.746963      1.309454
  O      -2.296706      8.164145      2.068222
  H      -1.596211      7.548213      1.782001
  H      -1.886526      8.914400      3.571493
  O      -1.637928      9.229022      4.473066
  H      -2.491047      9.275078      4.951223
  H      -2.226018     10.714356     -3.067078
  O      -3.187778     10.651984     -3.000959
  H      -3.515341     11.417185     -3.480800
  H       1.939429      8.255340      0.737845
  O       1.640941      8.548957     -0.158215
  H       2.457234      8.536467     -0.694625
  H       0.445694      8.633489      4.388650
  O       1.092575      7.958649      4.134580
  H       1.318590      7.488166      4.967524
  H       3.704087      8.194544      1.948955
  O       2.896523      7.650522      2.064893
  H       2.482858      7.882938      2.915622
  S       0.069751     12.795038     -2.528151
  H       0.165763     11.906943     -1.518837
  H       1.083185     12.200686     -3.189268
30
Coordinates from ORCA-job neb_12_204_CI_MEP.QMRegion E -2059.687748977755
  H       0.258747      6.807549      2.730278
  O      -0.035791      6.565652      1.834807
  H       0.622473      5.889961      1.554554
  H      -0.672675      8.790376     -2.233399
  O      -0.520629      9.605066     -1.692030
  H       0.250685      9.369798     -1.135363
  H      -1.849272      9.573180     -0.744006
  O      -2.713771      9.488922     -0.249869
  H      -3.324052     10.061248     -0.726943
  H      -2.497344      8.743380      1.328938
  O      -2.308226      8.165293      2.090756
  H      -1.616435      7.540963      1.802556
  H      -1.896521      8.922041      3.590000
  O      -1.644428      9.234546      4.490812
  H      -2.496820      9.272381      4.972310
  H      -2.221084     10.633412     -2.899315
  O      -3.185849     10.641280     -2.944016
  H      -3.405920     11.389252     -3.505268
  H       1.884744      8.296594      0.705892
  O       1.595290      8.582704     -0.194250
  H       2.419805      8.555551     -0.717594
  H       0.440356      8.626688      4.392869
  O       1.080697      7.947838      4.133258
  H       1.313105      7.479448      4.965875
  H       3.681260      8.189533      1.923235
  O       2.869865      7.649755      2.031408
  H       2.464573      7.869713      2.889158
  S       0.221167     13.071387     -1.612274
  H       0.075837     12.111844     -0.677235
  H       1.118271     12.326974     -2.288526
30
Coordinates from ORCA-job neb_12_204_CI_MEP.QMRegion E -2059.687540440052
  H       0.261100      6.807015      2.728996
  O      -0.034415      6.567152      1.833248
  H       0.623033      5.891446      1.551083
  H      -0.692328      8.800554     -2.276311
  O      -0.562249      9.637673     -1.762522
  H       0.222660      9.446861     -1.212732
  H      -1.869632      9.591763     -0.758328
  O      -2.715569      9.487911     -0.239932
  H      -3.344030     10.071554     -0.677721
  H      -2.484998      8.738763      1.332837
  O      -2.302084      8.159903      2.095631
  H      -1.609535      7.534512      1.810690
  H      -1.897691      8.920593      3.589163
  O      -1.645596      9.238885      4.488316
  H      -2.497712      9.277238      4.970038
  H      -2.215263     10.560356     -2.877245
  O      -3.177790     10.618370     -2.946908
  H      -3.346220     11.336861     -3.561203
  H       1.866532      8.320617      0.683612
  O       1.580286      8.603505     -0.217611
  H       2.408233      8.566639     -0.735302
  H       0.439203      8.625508      4.392167
  O       1.079796      7.947911      4.129980
  H       1.314385      7.478458      4.961324
  H       3.676037      8.192687      1.909637
  O       2.863024      7.654850      2.016303
  H       2.462781      7.870654      2.877091
  S       0.209104     12.980784     -0.747257
  H       0.096250     12.007880      0.179669
  H       1.173630     12.303433     -1.401011
30
Coordinates from ORCA-job neb_12_204_CI_MEP.QMRegion E -2059.687576483273
  H       0.263108      6.796757      2.732159
  O      -0.030926      6.563471      1.834383
  H       0.627018      5.889966      1.547778
  H      -0.699192      8.780218     -2.263781
  O      -0.593031      9.638777     -1.779693
  H       0.194935      9.499310     -1.223785
  H      -1.872851      9.601362     -0.769942
  O      -2.715192      9.482084     -0.244587
  H      -3.352806     10.065262     -0.667676
  H      -2.480017      8.726296      1.320488
  O      -2.296945      8.151553      2.087056
  H      -1.602271      7.526407      1.806039
  H      -1.894575      8.911074      3.579734
  O      -1.644107      9.233075      4.478565
  H      -2.496457      9.272022      4.959963
  H      -2.221475     10.526459     -2.913993
  O      -3.182895     10.602432     -2.989062
  H      -3.338160     11.276702     -3.654432
  H       1.877572      8.295223      0.694753
  O       1.583547      8.590542     -0.199727
  H       2.406908      8.557755     -0.724496
  H       0.432285      8.619144      4.392346
  O       1.080393      7.948032      4.131400
  H       1.315380      7.478708      4.962611
  H       3.684190      8.186692      1.924566
  O       2.874756      7.644118      2.032631
  H       2.468950      7.862015      2.890184
  S       0.086472     12.630207     -0.083657
  H       0.018936     11.794579      0.973090
  H       1.250852     12.091493     -0.497929
30
Coordinates from ORCA-job neb_12_204_CI_MEP.QMRegion E -2059.688870463566
  H       0.264232      6.766210      2.730278
  O      -0.026791      6.547076      1.827771
  H       0.626622      5.869522      1.537785
  H      -0.714907      8.787447     -2.268408
  O      -0.639903      9.653264     -1.790860
  H       0.150334      9.552326     -1.233022
  H      -1.902149      9.598141     -0.732971
  O      -2.734555      9.454803     -0.202172
  H      -3.386415     10.042387     -0.595124
  H      -2.470241      8.685653      1.332163
  O      -2.286105      8.114836      2.101843
  H      -1.599617      7.480112      1.820993
  H      -1.898630      8.882552      3.576206
  O      -1.646752      9.226573      4.467804
  H      -2.497048      9.265656      4.953240
  H      -2.220736     10.427043     -2.853362
  O      -3.174146     10.560722     -2.963431
  H      -3.265257     11.181035     -3.689407
  H       1.869210      8.277749      0.691576
  O       1.575899      8.588249     -0.197624
  H       2.398178      8.553119     -0.724014
  H       0.428637      8.583733      4.378070
  O       1.079020      7.913738      4.120473
  H       1.316507      7.451975      4.955723
  H       3.680125      8.167640      1.921210
  O       2.874327      7.618399      2.021885
  H       2.466810      7.819722      2.882568
  S       0.036067     12.178088      0.564965
  H      -0.142660     11.423922      1.669638
  H       1.212797     11.582428      0.284830
30
Coordinates from ORCA-job neb_12_204_CI_MEP.QMRegion E -2059.690884007296
  H       0.271885      6.791441      2.712874
  O      -0.025900      6.555044      1.817573
  H       0.627101      5.874242      1.534152
  H      -0.736425      8.809623     -2.284596
  O      -0.657321      9.676482     -1.810086
  H       0.146448      9.576053     -1.272140
  H      -1.947805      9.633403     -0.738367
  O      -2.782027      9.470754     -0.223221
  H      -3.441667     10.054392     -0.607977
  H      -2.467299      8.730635      1.333071
  O      -2.286903      8.127735      2.078839
  H      -1.586599      7.515643      1.782422
  H      -1.906425      8.854205      3.544789
  O      -1.640760      9.219799      4.427402
  H      -2.484016      9.288430      4.920264
  H      -2.182669     10.435502     -2.891190
  O      -3.128865     10.564796     -3.056230
  H      -3.177024     11.096743     -3.853730
  H       1.884905      8.284046      0.645368
  O       1.581035      8.600464     -0.238752
  H       2.400107      8.569191     -0.771764
  H       0.442739      8.594756      4.378524
  O       1.095471      7.930648      4.113166
  H       1.330024      7.457987      4.943514
  H       3.679599      8.179268      1.873923
  O       2.862257      7.645349      1.982133
  H       2.468150      7.858627      2.845633
  S       0.007076     11.422051      1.585003
  H      -0.412915     10.771202      2.692007
  H       1.010235     10.548324      1.363276
