33
Coordinates from ORCA-job neb_157_202_CI_MEP.QMRegion E -2131.009802678686
  H       7.909392     -1.767356     -4.054553
  O       7.703713     -1.423481     -3.148960
  H       7.215478     -0.575990     -3.310463
  H       7.647329      0.937311     -6.525673
  O       7.401156      0.055274     -6.817810
  H       6.412864      0.046242     -6.777649
  H       9.268596      0.384626     -1.065202
  O       8.561929      0.473303     -0.414290
  H       8.423740     -0.420556     -0.050119
  H       7.953627     -3.072729      0.387668
  O       8.388573     -2.230232      0.646764
  H       8.307916     -2.246126      1.612073
  H       5.962663      1.931213     -0.393806
  O       6.517247      2.124114     -1.168183
  H       7.336779      1.621425     -0.949428
  H       6.387198      1.427920     -4.190695
  O       6.216721      0.742407     -3.511909
  H       6.122912      1.215891     -2.657341
  H       9.791424     -2.276008     -0.965679
  O      10.034862     -2.041989     -1.872301
  H       9.204982     -1.684089     -2.256087
  H      10.000565     -3.436156     -3.124732
  O       9.777391     -4.106438     -3.804321
  H       9.306242     -3.613635     -4.489210
  H       6.662566      3.427557     -4.496255
  O       6.820025      2.794988     -5.234480
  H       6.018770      2.890531     -5.779728
  H       5.144068      4.277306     -3.080148
  O       6.107746      4.260665     -2.989376
  H       6.266227      3.673824     -2.226084
  S      10.009959      1.963066     -3.241056
  H       8.913402      1.964629     -4.027578
  H       9.716773      3.185237     -2.751020
33
Coordinates from ORCA-job neb_157_202_CI_MEP.QMRegion E -2131.008849681186
  H       7.887427     -1.754082     -4.059730
  O       7.673907     -1.403777     -3.159075
  H       7.175037     -0.563575     -3.328766
  H       7.621135      0.931332     -6.490131
  O       7.394614      0.052297     -6.808903
  H       6.406044      0.031697     -6.777556
  H       9.259358      0.525057     -0.843525
  O       8.430870      0.516778     -0.342704
  H       8.316980     -0.395630     -0.017728
  H       7.923360     -3.057489      0.386023
  O       8.340242     -2.206192      0.645940
  H       8.264940     -2.227228      1.611613
  H       5.840183      1.992594     -0.456319
  O       6.430354      2.150129     -1.209245
  H       7.224821      1.629858     -0.942037
  H       6.389583      1.429969     -4.236442
  O       6.205480      0.759618     -3.544975
  H       6.081733      1.246878     -2.702172
  H       9.741955     -2.274033     -0.953597
  O       9.977457     -2.077504     -1.870893
  H       9.164150     -1.672375     -2.240957
  H       9.946952     -3.434069     -3.129017
  O       9.746779     -4.100807     -3.820244
  H       9.264745     -3.611685     -4.500478
  H       6.706355      3.402580     -4.589407
  O       6.832033      2.757523     -5.320157
  H       6.016593      2.864802     -5.841842
  H       5.134359      4.281710     -3.190979
  O       6.096930      4.266018     -3.086924
  H       6.241339      3.700408     -2.306303
  S      10.838105      1.411552     -2.511208
  H       9.858798      1.484101     -3.438037
  H      10.726356      2.724380     -2.219825
33
Coordinates from ORCA-job neb_157_202_CI_MEP.QMRegion E -2131.009661842888
  H       7.853896     -1.736395     -4.075821
  O       7.639661     -1.389056     -3.174765
  H       7.150873     -0.540880     -3.337276
  H       7.612510      0.931852     -6.480326
  O       7.388018      0.055716     -6.809469
  H       6.398968      0.036571     -6.783803
  H       9.381903      0.508525     -0.593653
  O       8.429267      0.427327     -0.447935
  H       8.295705     -0.439972     -0.020694
  H       7.927298     -3.052573      0.376594
  O       8.341315     -2.203150      0.647346
  H       8.250988     -2.229124      1.611754
  H       5.897097      1.982270     -0.427186
  O       6.456065      2.170769     -1.197689
  H       7.264983      1.659447     -0.976166
  H       6.373274      1.448189     -4.241225
  O       6.182417      0.780366     -3.548445
  H       6.069297      1.267637     -2.705917
  H       9.779979     -2.165987     -1.036796
  O       9.972123     -1.962969     -1.962032
  H       9.125495     -1.587861     -2.299393
  H       9.915416     -3.373208     -3.170921
  O       9.710088     -4.058000     -3.841218
  H       9.224054     -3.582613     -4.529131
  H       6.701581      3.412295     -4.609299
  O       6.817949      2.762446     -5.335969
  H       6.000198      2.872432     -5.853540
  H       5.117800      4.292732     -3.203103
  O       6.080753      4.282313     -3.101110
  H       6.230079      3.731121     -2.312646
  S      11.473624      1.301873     -1.706529
  H      10.997408      0.350916     -2.538614
  H      10.635908      2.250286     -2.177231
33
Coordinates from ORCA-job neb_157_202_CI_MEP.QMRegion E -2131.007818195290
  H       7.928119     -1.788026     -4.053446
  O       7.735765     -1.454015     -3.139017
  H       7.242710     -0.603037     -3.289380
  H       7.648205      0.896853     -6.424435
  O       7.408781      0.039610     -6.791116
  H       6.421373      0.027900     -6.760800
  H       9.433093      0.157203     -0.697679
  O       8.578982      0.339432     -0.292653
  H       8.332277     -0.524575      0.094506
  H       7.977050     -3.115996      0.422203
  O       8.436237     -2.288178      0.691132
  H       8.343702     -2.303123      1.656391
  H       6.041663      1.907785     -0.363036
  O       6.594696      2.097171     -1.140552
  H       7.409120      1.596554     -0.925116
  H       6.437991      1.368698     -4.173785
  O       6.247624      0.696091     -3.483294
  H       6.159418      1.183177     -2.637776
  H       9.839684     -2.200339     -0.966841
  O      10.066512     -1.894800     -1.857107
  H       9.198682     -1.635230     -2.252336
  H      10.043990     -3.402224     -3.137299
  O       9.793623     -4.083338     -3.789259
  H       9.328212     -3.597781     -4.483552
  H       6.744261      3.337824     -4.546928
  O       6.836060      2.675368     -5.265067
  H       6.026150      2.807562     -5.788419
  H       5.174646      4.241616     -3.116831
  O       6.138775      4.237895     -3.034630
  H       6.312506      3.685555     -2.252839
  S      11.820258      1.332177     -2.185912
  H      11.200630      0.127898     -2.191372
  H      10.717051      1.978719     -1.754581
33
Coordinates from ORCA-job neb_157_202_CI_MEP.QMRegion E -2131.008328615607
  H       7.914764     -1.778247     -4.056925
  O       7.719503     -1.449039     -3.141493
  H       7.224031     -0.596789     -3.286714
  H       7.638039      0.893998     -6.396360
  O       7.403069      0.041167     -6.776544
  H       6.415639      0.026686     -6.752105
  H       9.298734      0.089354     -0.859362
  O       8.563676      0.367206     -0.300607
  H       8.296840     -0.471523      0.124168
  H       7.951904     -3.110140      0.432737
  O       8.404963     -2.277943      0.698196
  H       8.327093     -2.299188      1.664564
  H       6.007218      1.913511     -0.361336
  O       6.559557      2.107372     -1.137795
  H       7.376585      1.609035     -0.922949
  H       6.425212      1.371518     -4.160712
  O       6.232641      0.696239     -3.472481
  H       6.137250      1.182703     -2.626996
  H       9.762837     -2.185067     -0.930336
  O      10.017917     -1.864618     -1.808690
  H       9.160099     -1.636445     -2.245897
  H      10.027089     -3.388039     -3.126450
  O       9.779861     -4.064549     -3.782225
  H       9.310218     -3.577507     -4.473440
  H       6.726030      3.338200     -4.523205
  O       6.821180      2.676159     -5.241803
  H       6.016033      2.810906     -5.771499
  H       5.155116      4.248324     -3.105102
  O       6.118799      4.241995     -3.018866
  H       6.287977      3.685202     -2.238785
  S      11.584083      1.381297     -2.418136
  H      11.213504      0.116307     -2.108734
  H      10.838901      1.913627     -1.427289
33
Coordinates from ORCA-job neb_157_202_CI_MEP.QMRegion E -2131.009616427143
  H       7.949234     -1.802066     -4.038761
  O       7.765325     -1.478081     -3.119126
  H       7.267367     -0.626586     -3.258426
  H       7.639757      0.881147     -6.350005
  O       7.410008      0.041093     -6.760697
  H       6.423256      0.020405     -6.737112
  H       9.273338      0.183977     -0.873092
  O       8.562601      0.346556     -0.241722
  H       8.364452     -0.537357      0.126012
  H       7.983348     -3.138342      0.448076
  O       8.458152     -2.318562      0.716660
  H       8.362650     -2.327942      1.681951
  H       6.022099      1.896554     -0.339991
  O       6.582944      2.084029     -1.112506
  H       7.393439      1.580673     -0.881272
  H       6.446927      1.333823     -4.119988
  O       6.253518      0.655574     -3.435764
  H       6.165295      1.141257     -2.588446
  H       9.792729     -2.266789     -0.873845
  O      10.058399     -2.003313     -1.768014
  H       9.218160     -1.708916     -2.194100
  H      10.047702     -3.449866     -3.069314
  O       9.822039     -4.111307     -3.751551
  H       9.355417     -3.613290     -4.435745
  H       6.732116      3.302429     -4.474612
  O       6.827964      2.644308     -5.197600
  H       6.028269      2.785918     -5.732779
  H       5.176027      4.220044     -3.054440
  O       6.139742      4.211762     -2.974101
  H       6.313573      3.643877     -2.201790
  S      11.260494      1.273917     -2.401079
  H      11.270982     -0.028909     -2.032876
  H      11.207177      1.707438     -1.125150
33
Coordinates from ORCA-job neb_157_202_CI_MEP.QMRegion E -2131.014274522399
  H       7.911274     -1.757473     -4.052344
  O       7.720262     -1.420926     -3.140785
  H       7.237400     -0.564208     -3.291185
  H       7.641174      0.924885     -6.434940
  O       7.407371      0.061065     -6.789954
  H       6.419689      0.047505     -6.764108
  H       9.469339      0.577954     -0.398406
  O       8.513156      0.479955     -0.263486
  H       8.382458     -0.436080      0.039247
  H       7.957637     -3.106802      0.403206
  O       8.420244     -2.274362      0.654375
  H       8.334956     -2.277010      1.619929
  H       5.968836      1.961866     -0.393311
  O       6.534332      2.149731     -1.160123
  H       7.352371      1.665006     -0.914129
  H       6.431378      1.412816     -4.183958
  O       6.235218      0.737831     -3.498742
  H       6.145787      1.226237     -2.652698
  H       9.709442     -2.361673     -0.952898
  O       9.976971     -2.170670     -1.865122
  H       9.185490     -1.721282     -2.249654
  H       9.960873     -3.488018     -3.202717
  O       9.730011     -4.140977     -3.891916
  H       9.238673     -3.634480     -4.553684
  H       6.752871      3.400907     -4.543110
  O       6.841731      2.745563     -5.268714
  H       6.026240      2.874905     -5.783556
  H       5.187418      4.275738     -3.111674
  O       6.151121      4.295551     -3.027534
  H       6.332476      3.740817     -2.247903
  S      11.760614      0.490285     -1.129710
  H      11.225041     -0.673429     -1.607625
  H      12.226712     -0.121632     -0.021828
