24
Coordinates from ORCA-job neb_111_126_CI_MEP.QMRegion E -1917.016227715889
  H      -4.017802      1.215092      6.948991
  O      -3.813006      1.690159      7.795947
  H      -4.689689      2.080859      8.068246
  H      -0.571845      2.239692      7.659189
  O      -1.178468      2.021717      6.934621
  H      -2.063172      2.009373      7.320655
  H      -2.388445      2.952251     10.434383
  O      -2.210287      1.996133     10.289253
  H      -2.833432      1.740908      9.592565
  H       0.002091      3.435651      9.026357
  O       0.289635      2.528632      9.255248
  H      -0.477823      2.179104      9.752586
  H      -2.066011      5.359565     10.727155
  O      -2.732538      4.646297     10.853960
  H      -2.876912      4.580453     11.807450
  H       0.721028      0.502439      8.356344
  O       0.751129     -0.445343      8.190338
  H      -0.180934     -0.687241      8.054028
  H      -2.608794     -1.619226      7.542934
  O      -2.059443     -0.830902      7.700491
  H      -2.674823     -0.192445      8.073169
  S      -2.939694      2.424908     13.612946
  H      -1.617829      2.282462     13.845388
  H      -2.839643      1.793237     12.419567
24
Coordinates from ORCA-job neb_111_126_CI_MEP.QMRegion E -1917.013883893401
  H      -4.010257      1.219335      6.931783
  O      -3.815519      1.699251      7.779351
  H      -4.696765      2.081236      8.049716
  H      -0.528490      2.187039      7.654434
  O      -1.153169      2.016723      6.931875
  H      -2.031222      2.008119      7.329683
  H      -2.425356      2.966135     10.426570
  O      -2.238624      2.028730     10.207935
  H      -2.851327      1.818718      9.485697
  H       0.021252      3.435646      9.004047
  O       0.293038      2.532815      9.267423
  H      -0.500624      2.210749      9.742305
  H      -2.063870      5.385320     10.675088
  O      -2.744536      4.690589     10.839582
  H      -2.946704      4.755746     11.778093
  H       0.743222      0.399974      8.557530
  O       0.723863     -0.504456      8.231342
  H      -0.221455     -0.691265      8.097937
  H      -2.627206     -1.613472      7.582211
  O      -2.091716     -0.815580      7.740017
  H      -2.722471     -0.180712      8.093189
  S      -2.564023      1.520616     13.544501
  H      -1.235097      1.326720     13.410565
  H      -2.748402      1.372816     12.212351
24
Coordinates from ORCA-job neb_111_126_CI_MEP.QMRegion E -1917.013056611531
  H      -4.001994      1.218658      6.936144
  O      -3.811117      1.701652      7.782577
  H      -4.694142      2.081212      8.049160
  H      -0.499812      2.146776      7.657460
  O      -1.135174      2.014033      6.936021
  H      -2.008481      2.004332      7.343440
  H      -2.450344      2.986863     10.455433
  O      -2.259739      2.053068     10.230489
  H      -2.869351      1.843295      9.505576
  H       0.011975      3.431891      9.004469
  O       0.286032      2.535359      9.287454
  H      -0.510384      2.223420      9.762950
  H      -2.063284      5.404621     10.656748
  O      -2.758771      4.728957     10.842649
  H      -3.011338      4.886104     11.757070
  H       0.768151      0.325895      8.694745
  O       0.722084     -0.524536      8.250084
  H      -0.228915     -0.689505      8.129760
  H      -2.629078     -1.614623      7.602639
  O      -2.096103     -0.818165      7.777133
  H      -2.730465     -0.190144      8.136084
  S      -2.270393      0.818338     13.419801
  H      -1.008481      0.532981     13.035781
  H      -2.609292      1.148373     12.152060
24
Coordinates from ORCA-job neb_111_126_CI_MEP.QMRegion E -1917.013415822345
  H      -3.995824      1.234501      6.927805
  O      -3.807524      1.706023      7.779932
  H      -4.692195      2.077968      8.049336
  H      -0.418663      2.032273      7.635794
  O      -1.104743      2.019800      6.947845
  H      -1.952266      2.042930      7.402566
  H      -2.459946      2.998483     10.460909
  O      -2.278355      2.060513     10.249897
  H      -2.895575      1.842562      9.535349
  H      -0.004448      3.482180      9.017100
  O       0.329455      2.626909      9.353928
  H      -0.461284      2.260039      9.786736
  H      -2.064889      5.414270     10.650474
  O      -2.769252      4.749316     10.843634
  H      -3.033545      4.934606     11.749009
  H       0.899494     -0.140056      9.015885
  O       0.648109     -0.223232      8.097731
  H      -0.267123     -0.553332      8.094309
  H      -2.637505     -1.619345      7.655560
  O      -2.095862     -0.837704      7.865787
  H      -2.738111     -0.166494      8.119769
  S      -2.080412      0.428586     13.240600
  H      -0.994513     -0.066306     12.610115
  H      -2.484121      1.061752     12.113392
24
Coordinates from ORCA-job neb_111_126_CI_MEP.QMRegion E -1917.013361036891
  H      -4.007635      1.234971      6.913642
  O      -3.816221      1.703680      7.766776
  H      -4.699544      2.075668      8.040600
  H      -0.428527      2.013644      7.623658
  O      -1.117716      2.002518      6.936305
  H      -1.964619      2.036483      7.391279
  H      -2.461122      2.961504     10.406955
  O      -2.285504      2.025063     10.190741
  H      -2.914320      1.811190      9.484353
  H      -0.027323      3.460020      8.984926
  O       0.327674      2.603095      9.294154
  H      -0.441947      2.205675      9.734630
  H      -2.056209      5.392199     10.609521
  O      -2.758649      4.724057     10.798402
  H      -3.039555      4.919414     11.696467
  H       0.941601     -0.362785      8.966801
  O       0.639455     -0.234919      8.068154
  H      -0.276796     -0.567397      8.039588
  H      -2.624123     -1.644737      7.630423
  O      -2.076029     -0.866397      7.837898
  H      -2.714403     -0.179752      8.056874
  S      -1.745482      0.038731     12.896873
  H      -1.224875     -0.705490     11.898283
  H      -2.242554      0.927243     12.004021
24
Coordinates from ORCA-job neb_111_126_CI_MEP.QMRegion E -1917.014753700715
  H      -4.003654      1.222193      6.903479
  O      -3.808631      1.682804      7.761165
  H      -4.689730      2.054608      8.036334
  H      -0.438672      2.020916      7.621260
  O      -1.121291      1.989881      6.926279
  H      -1.973643      2.001697      7.372407
  H      -2.461619      2.959519     10.421094
  O      -2.266422      2.022903     10.225201
  H      -2.896039      1.776308      9.532215
  H      -0.027407      3.445226      8.972144
  O       0.329129      2.580915      9.256411
  H      -0.421515      2.183460      9.727579
  H      -2.064804      5.393880     10.618635
  O      -2.765757      4.723777     10.804574
  H      -3.051770      4.914976     11.701892
  H       0.941236     -0.446489      8.958196
  O       0.654104     -0.281395      8.060653
  H      -0.261642     -0.609016      8.007615
  H      -2.637251     -1.655910      7.636069
  O      -2.090435     -0.885333      7.876096
  H      -2.731841     -0.185062      8.038642
  S      -1.288259     -0.433922     12.368033
  H      -1.510460     -1.070262     11.201463
  H      -1.865149      0.688487     11.884914
24
Coordinates from ORCA-job neb_111_126_CI_MEP.QMRegion E -1917.020479294437
  H      -4.012008      1.233278      6.924943
  O      -3.809603      1.679601      7.786975
  H      -4.686983      2.058900      8.066326
  H      -0.442560      2.044603      7.669577
  O      -1.114733      1.982552      6.965070
  H      -1.970681      2.002297      7.405661
  H      -2.486585      2.942719     10.563380
  O      -2.274519      2.006828     10.387682
  H      -2.882409      1.753473      9.680069
  H      -0.056070      3.475130      9.022719
  O       0.311312      2.615041      9.306561
  H      -0.422744      2.217029      9.802040
  H      -2.095995      5.418628     10.663804
  O      -2.806666      4.765493     10.867726
  H      -3.131081      5.024617     11.734639
  H       0.878545     -0.633877      9.004658
  O       0.684383     -0.321358      8.117281
  H      -0.249520     -0.555034      7.992565
  H      -2.712142     -1.625728      7.702863
  O      -2.175564     -0.862497      7.991113
  H      -2.817350     -0.149376      8.101930
  S      -0.814638     -1.229062     11.158802
  H      -1.561486     -1.343599     10.033343
  H      -1.261664      0.029079     11.354123
