27
Coordinates from ORCA-job neb_25_178_CI_MEP.QMRegion E -1988.357323169300
  H      -3.468412      6.403289     -0.498189
  O      -3.288625      7.055286     -1.235532
  H      -3.087416      7.907907     -0.808083
  H      -3.170220      4.948020      1.120772
  O      -3.939947      5.349597      0.665038
  H      -4.359069      5.851948      1.413424
  H      -1.762167      9.664164     -0.807980
  O      -2.604289      9.533189     -0.298553
  H      -3.202788     10.196395     -0.655313
  H      -2.260466      8.794320      1.334382
  O      -2.180688      8.139916      2.047478
  H      -1.387041      7.607457      1.841893
  H      -4.415967      6.452869      3.581098
  O      -4.614575      6.864025      2.716843
  H      -3.819019      7.402346      2.545693
  H      -5.823326      7.288673     -4.321969
  O      -6.352467      6.679986     -4.867737
  H      -6.637367      5.961380     -4.248829
  H      -4.106060      9.132870     -3.280982
  O      -4.754738      8.420425     -3.172953
  H      -4.404080      7.901052     -2.419203
  H      -9.081291      7.896754     -4.162553
  O      -9.048436      7.396004     -4.989011
  H      -8.093093      7.213693     -5.086354
  S      -7.915430      9.791909     -2.801118
  H      -6.669573      9.253382     -2.782605
  H      -7.739127     10.272679     -4.049849
27
Coordinates from ORCA-job neb_25_178_CI_MEP.QMRegion E -1988.355805012393
  H      -3.466112      6.449874     -0.573237
  O      -3.306552      7.111130     -1.307150
  H      -3.126838      7.970193     -0.881163
  H      -3.135647      4.951842      1.029529
  O      -3.898873      5.357190      0.568731
  H      -4.321431      5.848356      1.322241
  H      -1.786554      9.693289     -0.833129
  O      -2.640753      9.577327     -0.340713
  H      -3.227609     10.231484     -0.732850
  H      -2.266418      8.830562      1.304070
  O      -2.174355      8.171507      2.010602
  H      -1.379849      7.643136      1.798517
  H      -4.380677      6.411748      3.524556
  O      -4.570031      6.816821      2.656217
  H      -3.785417      7.373792      2.495056
  H      -5.843298      7.321484     -4.388448
  O      -6.373529      6.693156     -4.911237
  H      -6.641668      5.983292     -4.277485
  H      -4.148125      9.188412     -3.371859
  O      -4.770894      8.454046     -3.263024
  H      -4.379778      7.929123     -2.533654
  H      -9.121228      7.928250     -4.131864
  O      -9.070248      7.439604     -4.961673
  H      -8.112698      7.275505     -5.071494
  S      -7.794815      9.098599     -1.757623
  H      -6.573816      8.960695     -2.337049
  H      -7.647756     10.431639     -1.618548
27
Coordinates from ORCA-job neb_25_178_CI_MEP.QMRegion E -1988.354422191810
  H      -3.462815      6.435492     -0.537816
  O      -3.290583      7.095768     -1.270277
  H      -3.105425      7.950275     -0.839714
  H      -3.144337      4.951327      1.066508
  O      -3.909707      5.352773      0.604558
  H      -4.337693      5.843389      1.355028
  H      -1.772973      9.691657     -0.811753
  O      -2.620462      9.574847     -0.307996
  H      -3.212799     10.228740     -0.691665
  H      -2.265902      8.817113      1.328978
  O      -2.180944      8.155318      2.033883
  H      -1.385524      7.627428      1.823707
  H      -4.397075      6.411876      3.552367
  O      -4.592081      6.819996      2.686168
  H      -3.805309      7.372764      2.523197
  H      -5.833262      7.327423     -4.318315
  O      -6.364164      6.711360     -4.856219
  H      -6.630315      5.986141     -4.238461
  H      -4.154895      9.185281     -3.302388
  O      -4.792965      8.467595     -3.171888
  H      -4.394957      7.933062     -2.452805
  H      -9.173841      7.898730     -4.097050
  O      -9.058586      7.432152     -4.931157
  H      -8.092844      7.280408     -4.990924
  S      -7.663428      9.025642     -1.354271
  H      -6.510972      9.037151     -2.071054
  H      -7.308531     10.101998     -0.623818
27
Coordinates from ORCA-job neb_25_178_CI_MEP.QMRegion E -1988.354774203376
  H      -3.436408      6.433766     -0.491873
  O      -3.259165      7.097748     -1.220084
  H      -3.060959      7.946050     -0.784706
  H      -3.144503      4.949551      1.097063
  O      -3.911520      5.352766      0.637462
  H      -4.329602      5.853611      1.386495
  H      -1.752563      9.712893     -0.790220
  O      -2.588152      9.599178     -0.266264
  H      -3.184988     10.262934     -0.625159
  H      -2.235182      8.831520      1.347547
  O      -2.163865      8.157273      2.042869
  H      -1.367643      7.628700      1.836244
  H      -4.388480      6.441826      3.569102
  O      -4.573904      6.856030      2.703087
  H      -3.774030      7.391197      2.540760
  H      -5.803766      7.348513     -4.241421
  O      -6.324572      6.740825     -4.799235
  H      -6.601687      6.006757     -4.198175
  H      -4.152048      9.208734     -3.206832
  O      -4.794565      8.497775     -3.056515
  H      -4.372864      7.950221     -2.360878
  H      -9.149965      7.827031     -3.987188
  O      -9.028180      7.431355     -4.856051
  H      -8.061165      7.286024     -4.918693
  S      -7.534231      9.504272     -1.153532
  H      -6.385918      9.243113     -1.826821
  H      -6.919656      9.468415      0.045762
27
Coordinates from ORCA-job neb_25_178_CI_MEP.QMRegion E -1988.354435048949
  H      -3.436576      6.439724     -0.509601
  O      -3.267631      7.097940     -1.241699
  H      -3.079351      7.955841     -0.815179
  H      -3.146532      4.950663      1.088193
  O      -3.914310      5.354434      0.630608
  H      -4.326677      5.859749      1.379540
  H      -1.795979      9.726713     -0.809188
  O      -2.620068      9.573666     -0.281040
  H      -3.264056     10.206519     -0.617701
  H      -2.252976      8.826926      1.328525
  O      -2.168654      8.163471      2.034404
  H      -1.373069      7.635794      1.824833
  H      -4.386799      6.452993      3.557541
  O      -4.575664      6.866896      2.692430
  H      -3.776046      7.403006      2.526189
  H      -5.788509      7.332683     -4.311072
  O      -6.342262      6.728166     -4.844818
  H      -6.605788      6.000729     -4.231537
  H      -4.156529      9.169477     -3.326275
  O      -4.728039      8.395147     -3.217236
  H      -4.306662      7.904297     -2.483129
  H      -9.154833      7.896021     -4.104861
  O      -9.023771      7.422656     -4.931601
  H      -8.054113      7.277047     -4.976553
  S      -6.696747     10.048033     -0.763072
  H      -6.328302      8.913839     -1.408043
  H      -6.993449      9.375960      0.377271
27
Coordinates from ORCA-job neb_25_178_CI_MEP.QMRegion E -1988.354840132022
  H      -3.452543      6.388316     -0.485000
  O      -3.272740      7.039248     -1.219211
  H      -3.075484      7.893691     -0.789431
  H      -3.168223      4.931446      1.132382
  O      -3.940719      5.329911      0.677448
  H      -4.365406      5.827065      1.423842
  H      -1.802292      9.686621     -0.788955
  O      -2.604719      9.489491     -0.243715
  H      -3.290455     10.099401     -0.537247
  H      -2.291219      8.749398      1.356653
  O      -2.207211      8.103529      2.080125
  H      -1.409472      7.577737      1.874093
  H      -4.446494      6.431952      3.588576
  O      -4.644046      6.846760      2.725170
  H      -3.837658      7.372311      2.555416
  H      -5.810865      7.311635     -4.278308
  O      -6.357371      6.715169     -4.829504
  H      -6.619924      5.976302     -4.228309
  H      -4.200153      9.125682     -3.276379
  O      -4.784173      8.364404     -3.152429
  H      -4.373140      7.878577     -2.409790
  H      -9.162273      7.845431     -4.051783
  O      -9.028097      7.411635     -4.899359
  H      -8.058494      7.257236     -4.942793
  S      -6.420125      9.670480     -0.175671
  H      -6.401835      8.528957     -0.893266
  H      -6.559178      9.007640      0.992991
27
Coordinates from ORCA-job neb_25_178_CI_MEP.QMRegion E -1988.356647821698
  H      -3.454180      6.395221     -0.482381
  O      -3.278625      7.040734     -1.219173
  H      -3.076292      7.895507     -0.791326
  H      -3.173572      4.941126      1.151712
  O      -3.947618      5.335077      0.694144
  H      -4.374859      5.834915      1.432669
  H      -1.787414      9.684404     -0.776322
  O      -2.571906      9.463172     -0.214351
  H      -3.270950     10.084291     -0.444009
  H      -2.299753      8.730569      1.361966
  O      -2.210922      8.092464      2.094610
  H      -1.411856      7.568553      1.889333
  H      -4.458796      6.471570      3.610186
  O      -4.627138      6.887322      2.740568
  H      -3.789860      7.367128      2.566660
  H      -5.793747      7.307084     -4.259245
  O      -6.335887      6.715079     -4.820746
  H      -6.604471      5.973088     -4.225929
  H      -4.232604      9.136797     -3.244278
  O      -4.840882      8.397433     -3.104746
  H      -4.433600      7.903456     -2.366326
  H      -9.140225      7.828239     -4.059026
  O      -9.004471      7.395271     -4.906702
  H      -8.034052      7.242935     -4.946037
  S      -6.058493      9.326538      0.598219
  H      -6.245342      8.309092     -0.268881
  H      -5.812717      8.481106      1.626211
