33
Coordinates from ORCA-job neb_18_150_CI_MEP.QMRegion E -2131.021951358051
  H       4.415713     -2.549015      5.591054
  O       4.138268     -3.210070      6.262693
  H       4.465874     -4.071709      5.914395
  H       4.924616     -2.178825      3.550124
  O       4.944384     -1.483917      4.241574
  H       4.112266     -0.949986      4.099812
  H       2.001015     -0.896131      5.206002
  O       1.456022     -1.443369      5.802541
  H       1.512864     -1.058931      6.689595
  H       5.669206     -5.542044      4.585883
  O       5.143140     -5.598539      5.417317
  H       4.357097     -6.117964      5.181188
  H       4.347591     -0.393214      7.887273
  O       4.041010      0.106709      7.119767
  H       4.830241      0.544245      6.762284
  H       6.492527      1.089410      4.843624
  O       6.073592      1.658860      5.516467
  H       6.245953      2.561530      5.154489
  H       7.540066     -0.461657      3.032227
  O       6.813322      0.114834      3.292854
  H       6.115609     -0.527068      3.595708
  H       7.604956     -2.618060      4.199127
  O       7.756755     -2.703098      3.245743
  H       7.244296     -3.496537      3.014426
  H       4.373159      2.025178      5.118781
  O       3.424553      2.234948      5.011354
  H       3.051345      2.215897      5.901536
  H       7.266814     -3.026514      6.941899
  O       7.341067     -3.355214      6.029819
  H       6.649156     -4.024935      5.970851
  S       5.820526     -2.298759      8.677451
  H       5.488223     -3.324537      9.486268
  H       5.008728     -2.765981      7.631434
33
Coordinates from ORCA-job neb_18_150_CI_MEP.QMRegion E -2131.016696601000
  H       4.589835     -2.691505      5.628840
  O       4.652534     -3.321056      6.375550
  H       4.682243     -4.227035      5.977781
  H       4.894835     -2.206960      3.562425
  O       4.902006     -1.522431      4.264675
  H       4.070975     -0.989512      4.125286
  H       2.002216     -0.902869      5.225691
  O       1.464293     -1.461305      5.818416
  H       1.496262     -1.062179      6.701611
  H       5.672951     -5.648515      4.657978
  O       5.124473     -5.790235      5.458647
  H       4.326129     -6.247993      5.151388
  H       4.308496     -0.342745      7.858731
  O       3.974709      0.106860      7.071701
  H       4.747457      0.551198      6.686351
  H       6.454914      1.057012      4.804763
  O       6.042693      1.630990      5.480047
  H       6.231095      2.534749      5.128341
  H       7.457030     -0.564658      3.045289
  O       6.760976      0.054578      3.295476
  H       6.040691     -0.560448      3.606274
  H       7.634455     -2.629732      4.225001
  O       7.717209     -2.717707      3.262504
  H       7.207274     -3.525996      3.070590
  H       4.355476      2.032068      5.095641
  O       3.405572      2.241147      4.999636
  H       3.039422      2.221804      5.892712
  H       7.758799     -2.913216      6.982336
  O       7.415861     -3.120699      6.107577
  H       6.457535     -3.319327      6.243264
  S       6.210013     -1.553558      9.039425
  H       5.540492     -2.720164      9.130674
  H       6.135507     -1.595921      7.694055
33
Coordinates from ORCA-job neb_18_150_CI_MEP.QMRegion E -2131.015570787976
  H       4.581515     -2.570437      5.662323
  O       4.627676     -3.197481      6.411423
  H       4.653189     -4.101005      6.011022
  H       4.927690     -2.172097      3.547123
  O       4.953227     -1.470132      4.230570
  H       4.114569     -0.945598      4.106364
  H       2.022024     -0.890921      5.247337
  O       1.473016     -1.445474      5.832646
  H       1.500972     -1.047057      6.716747
  H       5.675202     -5.556060      4.680467
  O       5.114784     -5.666458      5.477815
  H       4.337161     -6.163071      5.181139
  H       4.400007     -0.432482      7.708357
  O       4.030680      0.126024      7.011741
  H       4.802493      0.579986      6.636610
  H       6.535908      1.098427      4.830786
  O       6.130498      1.664883      5.516165
  H       6.284358      2.569312      5.150214
  H       7.538390     -0.483549      3.046660
  O       6.822244      0.110912      3.297565
  H       6.113034     -0.520693      3.605593
  H       7.618962     -2.611318      4.237627
  O       7.765008     -2.711989      3.281345
  H       7.249335     -3.511410      3.070887
  H       4.396237      2.059067      5.094216
  O       3.445161      2.255122      5.002990
  H       3.088468      2.236107      5.900147
  H       7.675470     -2.553857      6.835707
  O       7.370554     -3.085484      6.097540
  H       6.399918     -3.207348      6.258049
  S       6.189046     -1.155907      9.376954
  H       6.191709     -2.451077      9.001032
  H       7.292547     -0.858494      8.657702
33
Coordinates from ORCA-job neb_18_150_CI_MEP.QMRegion E -2131.015059830333
  H       4.386484     -2.495041      5.627483
  O       4.123987     -3.073292      6.369809
  H       4.420651     -3.958017      6.078496
  H       4.932339     -2.170927      3.535277
  O       4.967163     -1.455927      4.204703
  H       4.127441     -0.931833      4.077306
  H       2.002331     -0.879252      5.208787
  O       1.446144     -1.424573      5.797743
  H       1.485355     -1.031995      6.682057
  H       5.666582     -5.486281      4.622208
  O       5.140387     -5.530584      5.451745
  H       4.355775     -6.049771      5.215904
  H       4.135200     -0.718749      7.324526
  O       3.940290      0.102107      6.863615
  H       4.794857      0.462116      6.584688
  H       6.563538      1.088687      4.756975
  O       6.145193      1.637138      5.448821
  H       6.300069      2.550236      5.107923
  H       7.543389     -0.520302      2.968253
  O       6.848504      0.086540      3.248003
  H       6.128639     -0.531222      3.561031
  H       7.573677     -2.656795      4.152100
  O       7.769900     -2.729413      3.202025
  H       7.258232     -3.515626      2.945704
  H       4.412627      2.049437      5.032492
  O       3.465131      2.266305      4.947851
  H       3.107439      2.232074      5.842784
  H       7.133932     -2.633590      6.662836
  O       7.286040     -3.243503      5.923589
  H       6.532036     -3.845502      5.943588
  S       6.616856     -1.358240      8.596084
  H       6.606772     -2.345433      9.514322
  H       7.692803     -0.747492      9.134472
33
Coordinates from ORCA-job neb_18_150_CI_MEP.QMRegion E -2131.011409991585
  H       4.329068     -2.537088      5.765012
  O       4.059601     -3.124516      6.497990
  H       4.384823     -3.996940      6.211460
  H       4.894799     -2.220340      3.640075
  O       4.909490     -1.518441      4.323958
  H       4.085719     -0.979984      4.162190
  H       2.001032     -0.881596      5.254468
  O       1.439177     -1.432035      5.829815
  H       1.470138     -1.050805      6.720510
  H       5.663712     -5.523411      4.650126
  O       5.165526     -5.576145      5.495544
  H       4.362380     -6.073099      5.273324
  H       4.192688     -0.735757      7.517212
  O       3.972204      0.055086      7.015109
  H       4.814800      0.430074      6.721759
  H       6.525574      1.086107      4.844331
  O       6.124237      1.658174      5.526592
  H       6.285056      2.559482      5.158307
  H       7.463902     -0.574095      3.075206
  O       6.774169      0.056875      3.315687
  H       6.051076     -0.544595      3.641461
  H       7.541044     -2.688597      4.215528
  O       7.750032     -2.726966      3.266663
  H       7.241690     -3.508832      2.988088
  H       4.400298      2.035791      5.123949
  O       3.454824      2.252605      5.010280
  H       3.076196      2.231523      5.897447
  H       6.894726     -2.718655      6.654208
  O       7.192196     -3.355952      5.996306
  H       6.502532     -4.032884      5.988141
  S       6.966002     -1.708322      8.960809
  H       6.406961     -2.391864      9.978190
  H       7.229515     -0.619444      9.707919
33
Coordinates from ORCA-job neb_18_150_CI_MEP.QMRegion E -2131.015602280256
  H       4.458231     -2.391616      5.396181
  O       4.187663     -2.897784      6.185577
  H       4.451536     -3.814612      5.954080
  H       4.996471     -2.086071      3.393290
  O       5.045605     -1.344051      4.032497
  H       4.188245     -0.846566      3.931247
  H       1.991737     -0.838767      5.161553
  O       1.475895     -1.380270      5.792037
  H       1.500953     -0.954022      6.662597
  H       5.659598     -5.369024      4.599092
  O       5.097289     -5.371519      5.406678
  H       4.347875     -5.943499      5.183671
  H       4.173920     -0.767189      6.906738
  O       4.287497      0.159466      7.148569
  H       4.954503      0.520371      6.543510
  H       6.650295      1.133734      4.693850
  O       6.199144      1.647666      5.391826
  H       6.327429      2.574520      5.073521
  H       7.686557     -0.375420      2.856845
  O       6.971347      0.179802      3.183781
  H       6.270367     -0.470701      3.471049
  H       7.612310     -2.591082      4.102276
  O       7.767926     -2.700535      3.147280
  H       7.263185     -3.500880      2.928910
  H       4.446796      2.061377      4.977823
  O       3.492444      2.258495      4.930432
  H       3.177396      2.253582      5.842343
  H       7.325007     -2.439850      6.609939
  O       7.360434     -3.047847      5.851022
  H       6.544444     -3.558263      5.911483
  S       7.452433     -1.410856      8.761950
  H       6.114867     -1.354403      8.938931
  H       7.523407     -0.090917      8.487257
33
Coordinates from ORCA-job neb_18_150_CI_MEP.QMRegion E -2131.021865591475
  H       4.419957     -2.525222      5.472256
  O       4.217244     -3.051390      6.270238
  H       4.443779     -3.975037      6.005839
  H       4.937183     -2.152457      3.480495
  O       4.956034     -1.432928      4.148437
  H       4.108506     -0.919017      4.018534
  H       1.988738     -0.868754      5.253780
  O       1.442002     -1.422633      5.840526
  H       1.434434     -1.005306      6.718054
  H       5.627255     -5.447681      4.669999
  O       5.051821     -5.505738      5.461044
  H       4.301341     -6.056999      5.189902
  H       3.974137     -1.013173      7.127885
  O       3.970310     -0.051082      7.055876
  H       4.727844      0.174722      6.506562
  H       6.583424      1.083659      4.661259
  O       6.197835      1.623697      5.385384
  H       6.330197      2.547818      5.055005
  H       7.554451     -0.543430      2.986954
  O       6.860805      0.074910      3.245056
  H       6.129999     -0.538441      3.547410
  H       7.531685     -2.664082      4.193842
  O       7.696757     -2.731918      3.232424
  H       7.209024     -3.541129      2.995656
  H       4.423203      2.033201      5.096072
  O       3.477078      2.245923      5.003347
  H       3.112471      2.228084      5.897011
  H       7.428391     -2.137250      6.522761
  O       7.316097     -2.954702      6.002425
  H       6.401574     -3.217089      6.186901
  S       7.647663     -0.171123      7.795314
  H       7.150127      0.729882      6.902609
  H       8.913577      0.024477      7.373236
