30
Coordinates from ORCA-job neb_14_106_CI_MEP.QMRegion E -2059.678601085804
  H      -0.760889      6.369836      5.006360
  O      -1.362187      6.944259      5.547395
  H      -1.373718      7.826529      5.092933
  H      -1.727204      4.390051      7.671517
  O      -0.851222      4.526440      8.099091
  H      -0.635662      5.478037      8.059400
  H      -3.895319      4.560507      7.780036
  O      -3.327777      4.132365      7.096462
  H      -3.500381      3.182975      7.243672
  H      -3.882214      5.195190      5.577586
  O      -3.881573      6.067054      5.150273
  H      -2.940558      6.343208      5.223768
  H      -2.012335      5.209507     10.762214
  O      -2.784479      4.620454     10.941058
  H      -2.955499      4.701556     11.882334
  H      -4.252526      4.873592      9.868980
  O      -4.863089      5.052881      9.125682
  H      -5.474982      4.298532      9.091573
  H       0.160576      5.997400     10.904211
  O      -0.685957      6.388826     10.666045
  H      -0.529654      6.774856      9.783540
  H      -3.909167      9.016488      6.493832
  O      -4.009726      8.974490      5.530979
  H      -4.219583      8.038943      5.374974
  H       0.688054      7.119044      7.569738
  O      -0.217851      7.161896      7.932542
  H      -0.736548      7.193305      7.082090
  S      -3.853401      8.524953      8.923437
  H      -4.385892      7.285025      8.830342
  H      -2.589204      8.064630      8.840863
30
Coordinates from ORCA-job neb_14_106_CI_MEP.QMRegion E -2059.674319934974
  H      -0.765061      6.360433      4.972333
  O      -1.376097      6.933002      5.504443
  H      -1.377672      7.816925      5.055869
  H      -1.743779      4.375169      7.604964
  O      -0.879651      4.517846      8.054131
  H      -0.663764      5.468104      7.997637
  H      -3.908785      4.558549      7.718205
  O      -3.350167      4.126284      7.026787
  H      -3.525864      3.178952      7.176568
  H      -3.894922      5.216493      5.564548
  O      -3.882943      6.087960      5.133987
  H      -2.929676      6.333691      5.174545
  H      -1.955960      5.207764     10.628812
  O      -2.733886      4.642940     10.850584
  H      -2.894936      4.783814     11.786255
  H      -4.210379      4.837525      9.787629
  O      -4.844097      5.039618      9.071413
  H      -5.466101      4.292954      9.054193
  H       0.180109      6.161254     10.824556
  O      -0.681672      6.452703     10.510685
  H      -0.509407      6.796800      9.606902
  H      -3.779250      9.047985      6.569501
  O      -3.968098      8.927384      5.633709
  H      -4.143177      7.972337      5.543302
  H       0.688125      7.092698      7.489597
  O      -0.205515      7.157077      7.881414
  H      -0.755908      7.207365      7.056193
  S      -3.640171      8.575805     10.140421
  H      -4.080105      7.329955      9.868632
  H      -2.436614      8.129984     10.557151
30
Coordinates from ORCA-job neb_14_106_CI_MEP.QMRegion E -2059.673514332644
  H      -0.747588      6.371225      5.005414
  O      -1.346788      6.950891      5.543270
  H      -1.354577      7.829398      5.084498
  H      -1.730520      4.417178      7.666205
  O      -0.852508      4.542892      8.092624
  H      -0.627818      5.491071      8.053769
  H      -3.910031      4.584367      7.794628
  O      -3.343354      4.168934      7.097053
  H      -3.519038      3.217789      7.220212
  H      -3.889128      5.279717      5.647089
  O      -3.870482      6.131826      5.177832
  H      -2.914538      6.366984      5.211620
  H      -1.950387      5.236978     10.678226
  O      -2.722969      4.669212     10.896880
  H      -2.929444      4.872401     11.812449
  H      -4.222671      4.884577      9.843311
  O      -4.857661      5.065843      9.122270
  H      -5.466114      4.308642      9.108484
  H       0.207749      6.255747     10.913106
  O      -0.653342      6.520056     10.574780
  H      -0.470673      6.864978      9.674669
  H      -3.806648      9.133499      6.563790
  O      -3.973883      8.954890      5.634481
  H      -4.129528      7.991626      5.589849
  H       0.720539      7.122078      7.531774
  O      -0.171138      7.195641      7.925890
  H      -0.720311      7.236279      7.100355
  S      -3.565020      8.407304     11.202493
  H      -3.868045      7.463438     10.287987
  H      -2.257348      8.071223     11.187226
30
Coordinates from ORCA-job neb_14_106_CI_MEP.QMRegion E -2059.673976519961
  H      -0.746368      6.368049      5.000172
  O      -1.347101      6.948525      5.536168
  H      -1.353415      7.826622      5.077105
  H      -1.727655      4.420935      7.667858
  O      -0.849619      4.549461      8.094391
  H      -0.628367      5.498242      8.055624
  H      -3.910362      4.588983      7.775914
  O      -3.336201      4.167855      7.085752
  H      -3.515477      3.217984      7.213111
  H      -3.887483      5.277904      5.642248
  O      -3.867079      6.130041      5.172491
  H      -2.910401      6.363007      5.205970
  H      -1.939335      5.238568     10.611924
  O      -2.721219      4.697374     10.856829
  H      -2.994962      5.059823     11.704579
  H      -4.194206      4.921489      9.793176
  O      -4.852732      5.086211      9.086722
  H      -5.450642      4.321045      9.098821
  H       0.267866      6.144482     10.834552
  O      -0.580748      6.518049     10.577175
  H      -0.423551      6.887776      9.683359
  H      -3.830153      9.123053      6.535492
  O      -3.986706      8.945170      5.604758
  H      -4.134363      7.979838      5.558424
  H       0.720369      7.136416      7.521220
  O      -0.171676      7.211917      7.913870
  H      -0.719607      7.238912      7.086829
  S      -3.418775      7.909895     12.036744
  H      -3.631612      7.688352     10.723614
  H      -2.081014      7.905563     11.856628
30
Coordinates from ORCA-job neb_14_106_CI_MEP.QMRegion E -2059.673604902202
  H      -0.751673      6.365681      4.995890
  O      -1.356788      6.943322      5.529626
  H      -1.362174      7.822459      5.073044
  H      -1.735017      4.411955      7.659406
  O      -0.857339      4.545630      8.086290
  H      -0.642684      5.496002      8.046600
  H      -3.914512      4.584544      7.765576
  O      -3.340530      4.160718      7.075786
  H      -3.519307      3.211503      7.208078
  H      -3.891192      5.258813      5.629184
  O      -3.869968      6.111766      5.160626
  H      -2.914070      6.347105      5.197390
  H      -1.913630      5.204742     10.571961
  O      -2.709976      4.691327     10.827787
  H      -2.946606      5.058796     11.688041
  H      -4.188757      4.927526      9.778970
  O      -4.852206      5.081765      9.074407
  H      -5.444635      4.312839      9.095945
  H       0.320066      5.992367     10.746245
  O      -0.512636      6.445437     10.577840
  H      -0.389323      6.848976      9.694820
  H      -3.822301      9.074364      6.543185
  O      -3.985965      8.920955      5.609198
  H      -4.137565      7.957250      5.543272
  H       0.708477      7.136346      7.513236
  O      -0.182904      7.209117      7.907560
  H      -0.731851      7.234562      7.081306
  S      -3.203243      7.572722     12.606085
  H      -3.081420      7.764675     11.277336
  H      -1.868195      7.663209     12.770344
30
Coordinates from ORCA-job neb_14_106_CI_MEP.QMRegion E -2059.673861529359
  H      -0.759000      6.359919      4.976539
  O      -1.371701      6.932361      5.507438
  H      -1.376628      7.814445      5.056692
  H      -1.748284      4.394593      7.639215
  O      -0.871464      4.531978      8.067744
  H      -0.660097      5.482436      8.022769
  H      -3.922013      4.570550      7.766222
  O      -3.352422      4.150392      7.069532
  H      -3.525404      3.200307      7.203273
  H      -3.895380      5.225988      5.614011
  O      -3.872687      6.075768      5.139498
  H      -2.917703      6.313689      5.174824
  H      -1.915669      5.164357     10.538220
  O      -2.709573      4.662497     10.819412
  H      -2.886000      4.995993     11.708495
  H      -4.205581      4.905114      9.790427
  O      -4.859816      5.054719      9.077259
  H      -5.450282      4.283929      9.093701
  H       0.319642      6.053396     10.740232
  O      -0.532784      6.440117     10.516362
  H      -0.398494      6.827830      9.626354
  H      -3.808698      9.011698      6.545646
  O      -3.981390      8.877881      5.610219
  H      -4.132293      7.915056      5.528289
  H       0.693573      7.123930      7.484334
  O      -0.199437      7.195493      7.875327
  H      -0.748471      7.214792      7.047632
  S      -2.900576      7.293675     12.958961
  H      -2.329228      7.591936     11.774677
  H      -1.693396      7.218478     13.554105
30
Coordinates from ORCA-job neb_14_106_CI_MEP.QMRegion E -2059.675225196002
  H      -0.768570      6.342391      4.965892
  O      -1.385981      6.915732      5.491352
  H      -1.384637      7.798101      5.042194
  H      -1.750769      4.398467      7.677874
  O      -0.864732      4.532863      8.088281
  H      -0.652358      5.483401      8.037272
  H      -3.937489      4.580174      7.812063
  O      -3.361449      4.160460      7.121107
  H      -3.533814      3.209275      7.250475
  H      -3.911790      5.225297      5.650804
  O      -3.888786      6.061589      5.152875
  H      -2.933085      6.297241      5.176590
  H      -1.945383      5.176277     10.514192
  O      -2.718522      4.670721     10.835025
  H      -2.808675      4.959537     11.754092
  H      -4.258951      4.946048      9.837912
  O      -4.896065      5.086598      9.108851
  H      -5.486279      4.316067      9.123562
  H       0.317069      6.127904     10.663574
  O      -0.546400      6.520981     10.500435
  H      -0.459433      6.925734      9.611293
  H      -3.791997      9.010990      6.540379
  O      -3.975894      8.871273      5.607928
  H      -4.128940      7.908024      5.534140
  H       0.677661      7.123652      7.467620
  O      -0.219407      7.190357      7.849278
  H      -0.764491      7.195380      7.017275
  S      -2.360201      6.887431     13.374129
  H      -1.590065      7.210257     12.308763
  H      -1.298774      6.427501     14.067450
