36
Coordinates from ORCA-job neb_86_152_CI_MEP.QMRegion E -2202.357032846500
  H       6.418941     -4.138307     -0.543185
  O       7.194907     -4.518338     -0.094303
  H       7.663278     -4.949357     -0.842420
  H       6.374371      1.245248      4.798984
  O       6.065280      1.802214      5.538392
  H       6.207487      2.709120      5.172919
  H       7.625502      0.059924      3.213335
  O       6.692500      0.300550      3.322268
  H       6.223700     -0.507078      3.654881
  H       7.555296     -2.574327      4.179650
  O       7.606976     -2.613552      3.210870
  H       7.196411     -3.480386      3.018485
  H       6.752012     -5.971397      2.671681
  O       6.843327     -5.297952      3.379515
  H       7.699514     -5.426642      3.825576
  H       5.779666      0.071249      0.362492
  O       5.584988      0.824220      0.954378
  H       6.006090      0.607397      1.818975
  H       9.441842      0.169510     -1.131818
  O       8.733126      0.479342     -0.551795
  H       8.405661     -0.355981     -0.162420
  H       7.982839     -2.945513      0.298698
  O       8.415857     -2.099687      0.541926
  H       8.341200     -2.091359      1.511258
  H       9.485196     -4.137173      4.152553
  O       9.199598     -4.774479      4.818916
  H       8.716514     -4.218304      5.448874
  H       6.049665      1.950869     -0.535469
  O       6.612718      2.176188     -1.291466
  H       7.444283      1.710488     -1.105757
  H       9.716610     -2.190078     -1.136725
  O       9.935168     -1.852126     -2.016962
  H       9.058826     -1.626659     -2.403705
  S       9.881596      0.887289      2.644631
  H       9.338446      2.107861      2.845041
  H       9.577104      0.906471      1.318073
36
Coordinates from ORCA-job neb_86_152_CI_MEP.QMRegion E -2202.353264467518
  H       6.415385     -4.107672     -0.539618
  O       7.189030     -4.492096     -0.089790
  H       7.657011     -4.921585     -0.837914
  H       6.399587      1.261873      4.801970
  O       6.062231      1.816403      5.528188
  H       6.197009      2.724895      5.157931
  H       7.620142     -0.078253      3.199408
  O       6.732846      0.287991      3.309404
  H       6.191670     -0.475826      3.641470
  H       7.473076     -2.541324      4.152295
  O       7.476161     -2.553300      3.182242
  H       7.064262     -3.417575      2.982721
  H       6.710654     -5.928813      2.662287
  O       6.783374     -5.236759      3.353390
  H       7.646537     -5.326981      3.797353
  H       5.783177      0.106558      0.340775
  O       5.585815      0.850372      0.943280
  H       6.025071      0.631551      1.795826
  H       9.432788      0.275928     -1.133925
  O       8.767063      0.611788     -0.520888
  H       8.439098     -0.202567     -0.101749
  H       7.992415     -2.902310      0.302351
  O       8.416964     -2.059118      0.566047
  H       8.286106     -2.051551      1.529947
  H       9.456504     -4.088921      4.187501
  O       9.103127     -4.719266      4.825901
  H       8.613266     -4.148381      5.439795
  H       6.047469      2.011804     -0.546468
  O       6.613942      2.205065     -1.307133
  H       7.455849      1.767140     -1.091787
  H       9.696895     -2.125054     -1.114078
  O       9.930981     -1.816566     -2.000669
  H       9.060670     -1.586965     -2.398814
  S      10.337199     -0.213327      2.972122
  H      10.351693      1.068262      2.549776
  H      10.478308     -0.677140      1.712678
36
Coordinates from ORCA-job neb_86_152_CI_MEP.QMRegion E -2202.350646159498
  H       6.411817     -4.112398     -0.542792
  O       7.184026     -4.498441     -0.091861
  H       7.653782     -4.927236     -0.839611
  H       6.424138      1.256651      4.814911
  O       6.065420      1.814648      5.526345
  H       6.198950      2.722068      5.151924
  H       7.579499     -0.209142      3.181067
  O       6.744805      0.250570      3.317894
  H       6.155854     -0.474763      3.663358
  H       7.490351     -2.572311      4.164154
  O       7.476434     -2.560626      3.193695
  H       7.058103     -3.418551      2.982217
  H       6.710572     -5.938653      2.665915
  O       6.785128     -5.246742      3.357000
  H       7.648035     -5.338133      3.800892
  H       5.782851      0.102322      0.347633
  O       5.585586      0.842311      0.954849
  H       6.024526      0.617742      1.805329
  H       9.439544      0.252922     -1.088197
  O       8.750784      0.567680     -0.489788
  H       8.442609     -0.257338     -0.075970
  H       8.001122     -2.937168      0.319880
  O       8.462668     -2.110648      0.576638
  H       8.383056     -2.115098      1.545833
  H       9.481917     -4.110418      4.224525
  O       9.103491     -4.743275      4.845899
  H       8.616816     -4.171642      5.461185
  H       6.049297      2.007495     -0.544731
  O       6.621286      2.195434     -1.302187
  H       7.454654      1.743757     -1.082536
  H       9.685875     -2.153667     -1.110141
  O       9.926980     -1.836893     -1.992470
  H       9.060799     -1.595761     -2.392282
  S      10.824453     -0.736921      2.968821
  H      10.557964      0.453932      2.392993
  H      10.898719     -1.349367      1.768690
36
Coordinates from ORCA-job neb_86_152_CI_MEP.QMRegion E -2202.350071631043
  H       6.428334     -4.132806     -0.553276
  O       7.196581     -4.525743     -0.101570
  H       7.663210     -4.959636     -0.849747
  H       6.448276      1.228703      4.804216
  O       6.076649      1.790668      5.504639
  H       6.213606      2.697514      5.131309
  H       7.560674     -0.324861      3.138019
  O       6.769345      0.195889      3.305493
  H       6.151087     -0.497596      3.667962
  H       7.529738     -2.622357      4.171579
  O       7.511827     -2.600274      3.200705
  H       7.102851     -3.462310      2.984710
  H       6.726114     -5.968420      2.666502
  O       6.809711     -5.283968      3.364732
  H       7.672979     -5.387557      3.804733
  H       5.784681      0.085394      0.349577
  O       5.593230      0.824809      0.959948
  H       6.036535      0.592489      1.806196
  H       9.478296      0.171471     -1.066283
  O       8.770366      0.476331     -0.485065
  H       8.473635     -0.352030     -0.069799
  H       8.047508     -3.015450      0.319888
  O       8.536370     -2.205809      0.584893
  H       8.471680     -2.229291      1.554763
  H       9.549218     -4.165566      4.261281
  O       9.131801     -4.797857      4.858547
  H       8.649802     -4.224274      5.474487
  H       6.100124      1.964106     -0.536736
  O       6.662754      2.164484     -1.298789
  H       7.490400      1.694040     -1.099916
  H       9.705585     -2.215088     -1.123434
  O       9.937937     -1.876896     -2.000411
  H       9.069836     -1.625110     -2.388888
  S      11.216232     -1.254634      2.929095
  H      10.636189     -0.160349      2.392370
  H      11.170362     -1.905033      1.748394
36
Coordinates from ORCA-job neb_86_152_CI_MEP.QMRegion E -2202.350565110547
  H       6.411892     -4.142244     -0.556880
  O       7.184259     -4.532640     -0.107225
  H       7.650721     -4.964449     -0.855582
  H       6.435279      1.233305      4.807399
  O       6.071595      1.793844      5.511532
  H       6.208309      2.701400      5.137645
  H       7.532603     -0.300769      3.122500
  O       6.736346      0.214707      3.306004
  H       6.130856     -0.489120      3.668266
  H       7.504861     -2.619497      4.166773
  O       7.452235     -2.579357      3.198988
  H       7.066935     -3.454190      2.982327
  H       6.722084     -5.961347      2.665860
  O       6.804087     -5.274048      3.359557
  H       7.678484     -5.359306      3.785751
  H       5.776301      0.085509      0.348774
  O       5.579638      0.824199      0.954416
  H       6.014316      0.594872      1.808492
  H       9.440801      0.163090     -1.049336
  O       8.715528      0.458528     -0.488446
  H       8.425427     -0.370306     -0.067658
  H       8.012969     -3.026828      0.312077
  O       8.486184     -2.214618      0.600338
  H       8.388125     -2.254082      1.567451
  H       9.598105     -4.136008      4.264496
  O       9.135317     -4.773619      4.823584
  H       8.656560     -4.208810      5.449587
  H       6.063196      1.972375     -0.547864
  O       6.637191      2.167794     -1.298490
  H       7.459060      1.686298     -1.088757
  H       9.681719     -2.226693     -1.112347
  O       9.922448     -1.890629     -1.981460
  H       9.056877     -1.632342     -2.380084
  S      11.341202     -1.986521      2.923762
  H      10.607770     -0.947714      2.471851
  H      11.260637     -2.604454      1.727860
36
Coordinates from ORCA-job neb_86_152_CI_MEP.QMRegion E -2202.352285303223
  H       6.419436     -4.145332     -0.557824
  O       7.190687     -4.538117     -0.110908
  H       7.653277     -4.972656     -0.861548
  H       6.428850      1.230224      4.802543
  O       6.070671      1.792339      5.510283
  H       6.209266      2.698854      5.136783
  H       7.547942     -0.268526      3.137142
  O       6.737047      0.217132      3.306938
  H       6.139933     -0.499185      3.664299
  H       7.492216     -2.628131      4.166880
  O       7.419581     -2.597287      3.198472
  H       7.068051     -3.489898      2.995943
  H       6.725397     -5.969139      2.662880
  O       6.811244     -5.285301      3.361325
  H       7.686253     -5.374731      3.785563
  H       5.776967      0.081872      0.346501
  O       5.579798      0.822293      0.953782
  H       6.014719      0.593409      1.804833
  H       9.436868      0.151702     -1.054577
  O       8.696862      0.442429     -0.508473
  H       8.416211     -0.382348     -0.075176
  H       8.007899     -3.027226      0.312375
  O       8.438028     -2.202546      0.629499
  H       8.259846     -2.242885      1.587207
  H       9.662671     -4.235369      4.251515
  O       9.135542     -4.830019      4.808021
  H       8.682062     -4.228941      5.417564
  H       6.059928      1.968307     -0.551002
  O       6.637620      2.165761     -1.301889
  H       7.453615      1.677712     -1.095405
  H       9.685870     -2.239202     -1.113021
  O       9.920668     -1.897793     -1.986326
  H       9.054708     -1.639034     -2.376925
  S      11.359840     -2.714535      2.856419
  H      10.541232     -1.803213      2.294009
  H      11.329932     -3.470644      1.740068
36
Coordinates from ORCA-job neb_86_152_CI_MEP.QMRegion E -2202.355024196133
  H       6.428070     -4.112407     -0.526009
  O       7.204480     -4.510930     -0.093288
  H       7.653569     -4.942989     -0.853154
  H       6.443880      1.262167      4.857028
  O       6.075322      1.827168      5.557413
  H       6.209276      2.729553      5.172264
  H       7.590234     -0.177325      3.223070
  O       6.745581      0.257810      3.360039
  H       6.168230     -0.482464      3.697685
  H       7.508858     -2.589628      4.201140
  O       7.425373     -2.568848      3.232762
  H       7.091137     -3.471107      3.041681
  H       6.757037     -5.943228      2.682664
  O       6.839178     -5.256546      3.376214
  H       7.704220     -5.355816      3.824275
  H       5.790619      0.085572      0.372135
  O       5.586320      0.821431      0.981286
  H       6.021339      0.602598      1.833859
  H       9.406113      0.194331     -1.071801
  O       8.659723      0.464228     -0.524423
  H       8.431870     -0.352054     -0.049418
  H       8.039390     -3.005293      0.393476
  O       8.472458     -2.186454      0.722580
  H       8.198336     -2.172249      1.661899
  H       9.729642     -4.394490      4.220306
  O       9.155213     -4.888487      4.831957
  H       8.760182     -4.208711      5.396795
  H       6.004139      1.999318     -0.549726
  O       6.593957      2.181073     -1.293832
  H       7.405929      1.695819     -1.067564
  H       9.710386     -2.213276     -1.128298
  O       9.919761     -1.872032     -2.006037
  H       9.043175     -1.625102     -2.381986
  S      11.186064     -3.608160      2.372653
  H      10.211831     -3.021865      1.630033
  H      11.071155     -4.771257      1.698969
