24
Coordinates from ORCA-job neb_122_372_CI_MEP.QMRegion E -1917.014095394291
  H       1.970128     -3.601837      4.158829
  O       1.834535     -4.096532      4.998672
  H       2.289727     -3.559618      5.661701
  H       4.616977     -2.446475      5.565801
  O       4.468962     -2.962599      6.390825
  H       4.590107     -3.899083      6.119639
  H       2.208930     -5.677971      4.733344
  O       2.588175     -6.569747      4.508332
  H       1.858055     -7.127148      4.206403
  H       5.576891     -5.548685      4.768911
  O       5.043979     -5.590240      5.605253
  H       4.301191     -6.179971      5.403429
  H       6.608172     -5.921787      2.706714
  O       6.635607     -5.297501      3.459217
  H       7.554795     -5.332751      3.813030
  H       7.399405     -1.563859      6.441740
  O       7.265533     -2.472777      6.158543
  H       6.343640     -2.679365      6.415857
  H       8.912807     -3.955148      4.469632
  O       9.051604     -4.908485      4.593345
  H       8.827098     -5.078487      5.523367
  S       7.794132     -6.635285      7.235207
  H       6.572001     -6.307571      6.729084
  H       7.940114     -7.651860      6.360033
24
Coordinates from ORCA-job neb_122_372_CI_MEP.QMRegion E -1917.008998020407
  H       1.987842     -3.602558      4.126541
  O       1.859819     -4.103572      4.964649
  H       2.342794     -3.587760      5.623101
  H       4.681945     -2.417524      5.565934
  O       4.575216     -2.967085      6.376482
  H       4.651131     -3.890606      6.043251
  H       2.183930     -5.686899      4.689007
  O       2.569714     -6.579683      4.478050
  H       1.854675     -7.145603      4.156626
  H       5.634091     -5.522732      4.679392
  O       4.998102     -5.521653      5.435192
  H       4.271940     -6.106262      5.167881
  H       6.719794     -5.931203      2.656862
  O       6.777097     -5.303739      3.406635
  H       7.671138     -5.392709      3.793404
  H       7.490758     -1.599662      6.409366
  O       7.333118     -2.505934      6.130384
  H       6.404079     -2.696717      6.388623
  H       8.950893     -3.867868      4.266431
  O       9.141346     -4.733908      4.672954
  H       8.863507     -4.599311      5.587204
  S       6.309191     -7.156207      8.186311
  H       5.572225     -6.386336      7.352239
  H       7.064977     -7.580613      7.153273
24
Coordinates from ORCA-job neb_122_372_CI_MEP.QMRegion E -1917.008384506098
  H       1.967832     -3.591207      4.145438
  O       1.826030     -4.085762      4.984975
  H       2.288680     -3.558109      5.648864
  H       4.647740     -2.406725      5.569692
  O       4.536827     -2.948362      6.384938
  H       4.620965     -3.875223      6.059971
  H       2.173732     -5.666357      4.707780
  O       2.560326     -6.556693      4.490616
  H       1.841666     -7.123809      4.179650
  H       5.627550     -5.490212      4.702656
  O       4.998076     -5.496218      5.461714
  H       4.279502     -6.089340      5.195171
  H       6.716942     -5.907641      2.670511
  O       6.769330     -5.272804      3.413608
  H       7.663897     -5.349477      3.801544
  H       7.463357     -1.610971      6.454376
  O       7.290489     -2.504556      6.145338
  H       6.357254     -2.686775      6.397724
  H       8.941408     -3.792884      4.198967
  O       9.142663     -4.630007      4.662030
  H       8.833916     -4.439681      5.556676
  S       5.648783     -7.350450      8.393108
  H       4.927740     -6.497111      7.638614
  H       6.642046     -7.329100      7.481930
24
Coordinates from ORCA-job neb_122_372_CI_MEP.QMRegion E -1917.008394927655
  H       1.977729     -3.575076      4.152362
  O       1.838626     -4.063337      4.996219
  H       2.268801     -3.509710      5.660991
  H       4.653809     -2.370701      5.587281
  O       4.542217     -2.887309      6.419246
  H       4.628000     -3.821420      6.119119
  H       2.199785     -5.641622      4.724012
  O       2.581776     -6.534064      4.508446
  H       1.857802     -7.098070      4.204379
  H       5.645746     -5.427696      4.720826
  O       5.044023     -5.439572      5.501041
  H       4.327260     -6.041675      5.254300
  H       6.732081     -5.888999      2.677092
  O       6.781092     -5.248083      3.414338
  H       7.667000     -5.330283      3.819783
  H       7.473275     -1.558936      6.444925
  O       7.294257     -2.457128      6.153048
  H       6.361950     -2.629740      6.415492
  H       8.953933     -3.770745      4.215775
  O       9.140998     -4.592914      4.709828
  H       8.816103     -4.369146      5.591236
  S       5.172511     -7.303208      8.524854
  H       4.191910     -6.677287      7.844316
  H       6.087072     -6.877029      7.630939
24
Coordinates from ORCA-job neb_122_372_CI_MEP.QMRegion E -1917.008619595008
  H       1.957982     -3.585703      4.150181
  O       1.811760     -4.077847      4.990553
  H       2.246187     -3.532938      5.660066
  H       4.614669     -2.388057      5.575706
  O       4.495229     -2.904161      6.406090
  H       4.588108     -3.839121      6.111197
  H       2.171999     -5.653851      4.720199
  O       2.556472     -6.547392      4.510384
  H       1.834779     -7.109375      4.195804
  H       5.619474     -5.442650      4.711698
  O       5.022327     -5.458437      5.496324
  H       4.300654     -6.053584      5.247610
  H       6.700112     -5.894466      2.672385
  O       6.744651     -5.250997      3.408236
  H       7.625636     -5.340434      3.823446
  H       7.427515     -1.581407      6.449128
  O       7.251433     -2.478536      6.152295
  H       6.316052     -2.650229      6.404122
  H       8.918714     -3.800252      4.245135
  O       9.081612     -4.630883      4.733040
  H       8.737528     -4.414924      5.609099
  S       4.473954     -7.092413      8.568576
  H       3.559884     -6.906102      7.595095
  H       5.452590     -6.638811      7.759404
24
Coordinates from ORCA-job neb_122_372_CI_MEP.QMRegion E -1917.008863355757
  H       1.946609     -3.590387      4.154104
  O       1.785152     -4.096890      4.982910
  H       2.207759     -3.568839      5.672502
  H       4.611778     -2.393379      5.576235
  O       4.500765     -2.901039      6.412492
  H       4.571239     -3.840040      6.126757
  H       2.148476     -5.667096      4.713193
  O       2.532509     -6.562986      4.507587
  H       1.812065     -7.117751      4.176195
  H       5.600023     -5.462324      4.726408
  O       5.001042     -5.474347      5.508802
  H       4.273223     -6.059079      5.255999
  H       6.692160     -5.900203      2.681668
  O       6.730016     -5.257797      3.418403
  H       7.608903     -5.345751      3.838451
  H       7.419429     -1.585871      6.454872
  O       7.244701     -2.481823      6.153832
  H       6.306575     -2.653558      6.399719
  H       8.903802     -3.810010      4.279187
  O       9.058051     -4.645727      4.760482
  H       8.707010     -4.437201      5.635566
  S       3.487790     -6.589567      8.448290
  H       2.986703     -6.912052      7.237163
  H       4.718455     -6.410400      7.925789
24
Coordinates from ORCA-job neb_122_372_CI_MEP.QMRegion E -1917.009412828446
  H       1.976749     -3.595129      4.130028
  O       1.799379     -4.133893      4.935303
  H       2.182049     -3.632882      5.665521
  H       4.654827     -2.392799      5.579918
  O       4.566061     -2.908948      6.414407
  H       4.606780     -3.846351      6.116898
  H       2.169469     -5.681515      4.676926
  O       2.549801     -6.587353      4.491491
  H       1.833306     -7.136222      4.141937
  H       5.616874     -5.504158      4.819367
  O       4.992928     -5.510869      5.580215
  H       4.277767     -6.100527      5.303990
  H       6.738259     -5.923362      2.743821
  O       6.761145     -5.286499      3.483930
  H       7.641070     -5.351953      3.906194
  H       7.474714     -1.613473      6.491164
  O       7.283254     -2.497094      6.165496
  H       6.341941     -2.663738      6.410736
  H       8.956967     -3.799880      4.303939
  O       9.087248     -4.606046      4.836645
  H       8.708873     -4.338281      5.684998
  S       2.276504     -6.124678      8.057217
  H       2.207350     -6.752293      6.862320
  H       3.578728     -5.829895      7.867267
