33
Coordinates from ORCA-job neb_204_208_CI_MEP.QMRegion E -2131.025396743501
  H       0.267679      6.801225      2.708726
  O      -0.031530      6.574263      1.811245
  H       0.620728      5.895132      1.521347
  H      -0.726504      8.769530     -2.295220
  O      -0.625816      9.619838     -1.797009
  H       0.148464      9.481921     -1.224562
  H      -1.959733      9.613441     -0.764467
  O      -2.816337      9.479152     -0.275868
  H      -3.458999     10.025450     -0.737955
  H      -2.467728      8.793112      1.309689
  O      -2.299362      8.172763      2.046070
  H      -1.573042      7.588391      1.752255
  H      -4.444462      6.354276      3.508186
  O      -4.666311      6.836621      2.692587
  H      -3.869186      7.378449      2.529550
  H      -1.841568      8.922958      3.495940
  O      -1.536982      9.286764      4.364889
  H      -2.357797      9.373050      4.888112
  H      -3.930865      8.751203      6.702554
  O      -3.994025      8.763371      5.742793
  H      -4.090047      7.821439      5.505393
  H       1.867781      8.277004      0.634382
  O       1.569343      8.598444     -0.249336
  H       2.386952      8.563340     -0.783820
  H       0.429036      8.604996      4.340368
  O       1.105832      7.956332      4.091691
  H       1.335412      7.488334      4.925640
  H       3.674544      8.177693      1.850604
  O       2.859153      7.641313      1.958171
  H       2.462816      7.850929      2.821908
  S      -0.093842     11.331790      1.598545
  H      -0.494992     10.841045      2.792244
  H       0.992744     10.535747      1.553557
33
Coordinates from ORCA-job neb_204_208_CI_MEP.QMRegion E -2131.024021141130
  H       0.298188      6.793519      2.696994
  O      -0.006918      6.562726      1.802559
  H       0.644078      5.882189      1.510302
  H      -0.699097      8.774226     -2.315585
  O      -0.585030      9.622470     -1.816854
  H       0.196943      9.472691     -1.255646
  H      -1.915630      9.587237     -0.781509
  O      -2.762619      9.445419     -0.278935
  H      -3.405667     10.026363     -0.694821
  H      -2.419374      8.746144      1.298027
  O      -2.255417      8.122581      2.033129
  H      -1.524615      7.538970      1.744259
  H      -4.419767      6.326645      3.493678
  O      -4.633929      6.825670      2.686658
  H      -3.819152      7.340241      2.517404
  H      -1.844111      8.880948      3.494733
  O      -1.590584      9.269759      4.369112
  H      -2.429456      9.289214      4.874054
  H      -3.995388      8.706181      6.661428
  O      -4.036703      8.706493      5.700495
  H      -4.114836      7.758750      5.472483
  H       1.871757      8.312399      0.635329
  O       1.573667      8.610059     -0.255880
  H       2.395269      8.574237     -0.784241
  H       0.458462      8.598247      4.336846
  O       1.121411      7.938427      4.085104
  H       1.351160      7.471779      4.920265
  H       3.690898      8.177552      1.844322
  O       2.876134      7.640300      1.955591
  H       2.486320      7.850126      2.821533
  S      -0.980436     11.765815      1.839864
  H      -1.506602     11.195200      2.946989
  H       0.167374     11.072056      1.980687
33
Coordinates from ORCA-job neb_204_208_CI_MEP.QMRegion E -2131.022955973827
  H       0.291312      6.799246      2.699320
  O      -0.011302      6.566776      1.804377
  H       0.641161      5.887447      1.513549
  H      -0.703092      8.777804     -2.318778
  O      -0.588334      9.626460     -1.820401
  H       0.195768      9.476959     -1.261356
  H      -1.913915      9.583562     -0.791523
  O      -2.751217      9.439975     -0.272974
  H      -3.395476     10.045209     -0.649820
  H      -2.424352      8.745223      1.294664
  O      -2.259780      8.129116      2.037010
  H      -1.532263      7.540015      1.751609
  H      -4.425755      6.331762      3.492405
  O      -4.638890      6.831372      2.685637
  H      -3.823877      7.346572      2.518507
  H      -1.860315      8.887480      3.507081
  O      -1.619855      9.269867      4.386949
  H      -2.462350      9.268785      4.886674
  H      -4.049539      8.713866      6.645224
  O      -4.076480      8.703400      5.683839
  H      -4.138018      7.752167      5.464221
  H       1.857817      8.330158      0.634379
  O       1.564445      8.617674     -0.261427
  H       2.389224      8.580139     -0.784329
  H       0.449185      8.608556      4.344113
  O       1.107312      7.945219      4.089388
  H       1.340186      7.478365      4.923400
  H       3.682888      8.185310      1.845618
  O       2.867666      7.649150      1.955772
  H       2.477079      7.861209      2.820780
  S      -1.549337     11.956731      1.996569
  H      -2.136172     11.298240      3.018773
  H      -0.387013     11.308611      2.214757
33
Coordinates from ORCA-job neb_204_208_CI_MEP.QMRegion E -2131.022932296273
  H       0.285969      6.810706      2.699018
  O      -0.016282      6.572375      1.805501
  H       0.638097      5.894459      1.516932
  H      -0.702365      8.780362     -2.321956
  O      -0.585924      9.630588     -1.826256
  H       0.199280      9.481901     -1.267519
  H      -1.897303      9.585082     -0.798530
  O      -2.723276      9.444187     -0.260015
  H      -3.357703     10.092833     -0.575335
  H      -2.418973      8.759896      1.289981
  O      -2.257679      8.151853      2.041799
  H      -1.533143      7.557100      1.761622
  H      -4.421748      6.338576      3.489108
  O      -4.633122      6.838660      2.682270
  H      -3.818867      7.356134      2.517350
  H      -1.867414      8.907692      3.516658
  O      -1.635559      9.275094      4.404435
  H      -2.482922      9.264695      4.895513
  H      -4.080720      8.711632      6.631324
  O      -4.107486      8.698592      5.669961
  H      -4.155608      7.745663      5.453082
  H       1.845960      8.354194      0.629631
  O       1.557449      8.628488     -0.271482
  H       2.385485      8.588301     -0.788844
  H       0.441705      8.625934      4.352364
  O       1.094058      7.958111      4.094373
  H       1.328244      7.489210      4.926541
  H       3.676857      8.195275      1.845062
  O       2.858665      7.664205      1.955752
  H       2.470514      7.880241      2.820861
  S      -2.109493     12.088970      2.178547
  H      -2.720036     11.312715      3.097259
  H      -0.932839     11.470949      2.406597
33
Coordinates from ORCA-job neb_204_208_CI_MEP.QMRegion E -2131.023286995159
  H       0.286459      6.804847      2.701244
  O      -0.015382      6.569003      1.806743
  H       0.638376      5.890636      1.517398
  H      -0.701350      8.777908     -2.328171
  O      -0.583997      9.628083     -1.831983
  H       0.198682      9.476745     -1.270145
  H      -1.889198      9.576516     -0.804251
  O      -2.701885      9.433372     -0.245917
  H      -3.338133     10.100133     -0.515882
  H      -2.414295      8.744139      1.295778
  O      -2.261141      8.137780      2.051652
  H      -1.538343      7.538936      1.775300
  H      -4.428340      6.331852      3.488483
  O      -4.638819      6.833983      2.682746
  H      -3.822600      7.349344      2.519178
  H      -1.865143      8.899523      3.518470
  O      -1.627220      9.270047      4.403745
  H      -2.472869      9.270841      4.896399
  H      -4.129602      8.722671      6.609946
  O      -4.122641      8.699750      5.648411
  H      -4.161200      7.744373      5.439753
  H       1.842938      8.350448      0.631749
  O       1.555801      8.625442     -0.269619
  H       2.384538      8.585873     -0.785765
  H       0.440874      8.618849      4.347344
  O       1.093700      7.950286      4.092294
  H       1.327697      7.484511      4.926229
  H       3.674749      8.192261      1.848059
  O       2.858144      7.658599      1.955961
  H       2.466887      7.872003      2.820500
  S      -2.710461     11.989018      2.309750
  H      -3.305007     11.126127      3.158614
  H      -1.496879     11.477866      2.600870
33
Coordinates from ORCA-job neb_204_208_CI_MEP.QMRegion E -2131.024115134704
  H       0.276004      6.778457      2.713656
  O      -0.018515      6.555534      1.813252
  H       0.632441      5.875248      1.521211
  H      -0.712661      8.770811     -2.338889
  O      -0.591669      9.621374     -1.842665
  H       0.186785      9.464318     -1.277435
  H      -1.899003      9.565204     -0.812833
  O      -2.697396      9.411891     -0.237646
  H      -3.362648     10.051326     -0.504013
  H      -2.418090      8.713883      1.311736
  O      -2.259070      8.108556      2.066511
  H      -1.535411      7.511574      1.786798
  H      -4.441500      6.340905      3.489162
  O      -4.645130      6.841884      2.681284
  H      -3.820388      7.344845      2.517465
  H      -1.866256      8.873549      3.531608
  O      -1.623686      9.257489      4.410676
  H      -2.465171      9.263398      4.908775
  H      -4.197773      8.745298      6.583274
  O      -4.151483      8.699558      5.623671
  H      -4.180659      7.739429      5.434612
  H       1.829372      8.323270      0.639867
  O       1.545262      8.607996     -0.259659
  H       2.373931      8.568040     -0.775493
  H       0.439747      8.608092      4.351850
  O       1.085164      7.933141      4.095082
  H       1.321735      7.470259      4.930083
  H       3.659896      8.179339      1.855996
  O       2.849083      7.637495      1.959676
  H       2.450674      7.845949      2.822766
  S      -3.370110     11.678989      2.394703
  H      -3.886055     10.754997      3.230961
  H      -2.117623     11.413183      2.819659
33
Coordinates from ORCA-job neb_204_208_CI_MEP.QMRegion E -2131.026905772233
  H       0.294583      6.791584      2.709649
  O      -0.005214      6.558614      1.813963
  H       0.647577      5.880722      1.521109
  H      -0.691628      8.779171     -2.346771
  O      -0.563216      9.630927     -1.856002
  H       0.218737      9.471813     -1.295333
  H      -1.858751      9.588417     -0.803458
  O      -2.639428      9.429085     -0.206526
  H      -3.297757     10.101083     -0.398585
  H      -2.376792      8.735864      1.324465
  O      -2.218095      8.128323      2.079139
  H      -1.489548      7.538758      1.796150
  H      -4.407813      6.363396      3.478174
  O      -4.608328      6.870016      2.673287
  H      -3.776538      7.360767      2.500888
  H      -1.839560      8.914041      3.531306
  O      -1.631475      9.288133      4.423613
  H      -2.489775      9.270913      4.890779
  H      -4.258498      8.782661      6.517092
  O      -4.183166      8.700458      5.561832
  H      -4.184715      7.733414      5.407012
  H       1.844926      8.340180      0.632764
  O       1.562432      8.615528     -0.269512
  H       2.392645      8.571972     -0.783374
  H       0.465320      8.631734      4.352087
  O       1.100057      7.947643      4.094657
  H       1.332163      7.482197      4.929366
  H       3.676940      8.181765      1.851109
  O       2.863573      7.643489      1.959295
  H       2.470617      7.856706      2.823217
  S      -4.267375     11.156375      2.593680
  H      -4.670859     10.118038      3.355580
  H      -3.031839     11.132076      3.137953
