21
Coordinates from ORCA-job neb_106_108_CI_MEP.QMRegion E -1845.691374920565
  H      -1.707039      4.529338      7.596282
  O      -0.825520      4.626338      8.031223
  H      -0.636098      5.582324      8.045904
  H      -2.514686      2.812042     10.589520
  O      -2.319513      1.913820     10.266635
  H      -2.906152      1.802436      9.500749
  H      -0.027043      3.294517      9.046339
  O       0.188143      2.375368      9.291985
  H      -0.633050      2.087105      9.752998
  H       2.002767      2.052825      8.333081
  O       2.759316      2.282079      7.776053
  H       3.185298      1.423914      7.581398
  H      -1.971169      5.208153     10.475133
  O      -2.707861      4.693703     10.848532
  H      -2.846068      5.111421     11.713227
  H       0.362942      6.401874     10.705861
  O      -0.534397      6.683803     10.498017
  H      -0.451985      7.076194      9.605425
  S      -2.284903      6.934362     13.399456
  H      -1.594691      7.328615     12.305559
  H      -1.185897      6.383577     13.955956
21
Coordinates from ORCA-job neb_106_108_CI_MEP.QMRegion E -1845.689440226371
  H      -1.704096      4.566463      7.586277
  O      -0.821540      4.659836      8.017635
  H      -0.626316      5.616456      8.038316
  H      -2.556967      2.965518     10.469585
  O      -2.371269      2.046126     10.202724
  H      -2.943063      1.892719      9.432114
  H      -0.053995      3.339739      9.005251
  O       0.159636      2.424642      9.274452
  H      -0.675968      2.151475      9.719694
  H       1.981639      2.076897      8.330611
  O       2.745079      2.292748      7.777240
  H       3.161837      1.430154      7.584496
  H      -2.049436      5.408130     10.559997
  O      -2.740750      4.788493     10.863971
  H      -2.867261      5.029046     11.791401
  H       0.196599      6.388761     10.670756
  O      -0.674252      6.770864     10.516504
  H      -0.585046      7.158213      9.623570
  S      -1.273336      5.851751     13.828249
  H      -1.011765      6.813173     12.919284
  H      -0.384773      5.007182     13.263458
21
Coordinates from ORCA-job neb_106_108_CI_MEP.QMRegion E -1845.687315726640
  H      -1.701353      4.560685      7.579024
  O      -0.820777      4.649269      8.014225
  H      -0.620764      5.604363      8.036206
  H      -2.584554      2.911730     10.470530
  O      -2.386236      2.002276     10.191754
  H      -2.948801      1.857474      9.411533
  H      -0.050775      3.325362      9.013219
  O       0.154864      2.406060      9.272967
  H      -0.680821      2.128845      9.712346
  H       1.974906      2.053628      8.308166
  O       2.740594      2.279497      7.762839
  H       3.165578      1.420593      7.570221
  H      -2.073432      5.435750     10.597109
  O      -2.752989      4.783265     10.875481
  H      -3.074905      5.106268     11.722610
  H       0.071991      6.510131     10.804540
  O      -0.804104      6.767750     10.493883
  H      -0.640603      7.116054      9.595388
  S      -0.243491      5.577349     13.679457
  H      -0.871256      6.558808     13.001651
  H      -0.568586      4.655394     12.749339
21
Coordinates from ORCA-job neb_106_108_CI_MEP.QMRegion E -1845.688705655516
  H      -1.688617      4.559287      7.592772
  O      -0.807484      4.643650      8.025434
  H      -0.606003      5.599077      8.051970
  H      -2.574451      2.908782     10.487024
  O      -2.376099      1.999258     10.207729
  H      -2.937519      1.856657      9.426595
  H      -0.029343      3.314517      9.028507
  O       0.168323      2.391302      9.279772
  H      -0.665775      2.118943      9.723859
  H       1.994406      2.054592      8.320977
  O       2.754933      2.280874      7.768731
  H       3.179635      1.421880      7.576200
  H      -2.111988      5.459543     10.616149
  O      -2.773669      4.780017     10.892665
  H      -3.155516      5.125231     11.704582
  H      -0.130011      6.582493     10.943562
  O      -0.955896      6.805271     10.490029
  H      -0.687090      7.109490      9.602541
  S       0.353061      5.659117     13.361106
  H      -0.777887      6.390336     13.405840
  H      -0.305562      4.562962     12.929933
21
Coordinates from ORCA-job neb_106_108_CI_MEP.QMRegion E -1845.688846735813
  H      -1.684283      4.534913      7.580601
  O      -0.803256      4.620004      8.014320
  H      -0.603958      5.575169      8.038208
  H      -2.525382      2.809322     10.453925
  O      -2.331299      1.899704     10.167684
  H      -2.904682      1.771365      9.391614
  H       0.002370      3.280373      9.032234
  O       0.195982      2.356079      9.277827
  H      -0.649920      2.068237      9.693810
  H       1.986598      2.000009      8.263397
  O       2.761269      2.255736      7.745152
  H       3.205886      1.406359      7.550719
  H      -2.079321      5.335840     10.553753
  O      -2.748522      4.657840     10.821934
  H      -3.079079      4.966871     11.669790
  H      -0.112783      6.402335     10.906853
  O      -0.936913      6.676136     10.474907
  H      -0.668886      7.022967      9.603115
  S       0.799989      5.298227     12.996579
  H      -0.362708      5.771237     13.489659
  H       0.240467      4.116640     12.659224
21
Coordinates from ORCA-job neb_106_108_CI_MEP.QMRegion E -1845.689963755403
  H      -1.688437      4.534180      7.575767
  O      -0.806282      4.617980      8.008243
  H      -0.607298      5.573432      8.034534
  H      -2.528759      2.787127     10.450107
  O      -2.332837      1.878438     10.159808
  H      -2.908220      1.753546      9.384262
  H      -0.015076      3.284004      9.033336
  O       0.188389      2.365714      9.296397
  H      -0.665530      2.067760      9.691872
  H       1.972557      1.989747      8.251227
  O       2.752157      2.250139      7.743213
  H       3.200849      1.402835      7.548257
  H      -2.073374      5.298784     10.544210
  O      -2.751748      4.626734     10.807134
  H      -3.064259      4.923768     11.665715
  H      -0.074250      6.272362     10.863354
  O      -0.902819      6.609925     10.485668
  H      -0.654611      6.986490      9.621011
  S       1.116510      4.926628     12.603972
  H      -0.038248      5.021242     13.294832
  H       0.765041      3.737185     12.068888
21
Coordinates from ORCA-job neb_106_108_CI_MEP.QMRegion E -1845.692876489552
  H      -1.700398      4.556050      7.590099
  O      -0.814313      4.637885      8.015736
  H      -0.614220      5.595868      8.049819
  H      -2.593257      2.822643     10.527232
  O      -2.369088      1.926380     10.215675
  H      -2.939531      1.795044      9.438576
  H      -0.102626      3.327194      9.015408
  O       0.136188      2.426144      9.325491
  H      -0.711920      2.124924      9.736180
  H       1.956426      2.012896      8.284379
  O       2.733292      2.261746      7.767918
  H       3.177028      1.412057      7.573623
  H      -2.120518      5.295484     10.690957
  O      -2.836625      4.647491     10.911044
  H      -3.174804      4.933676     11.764187
  H      -0.009608      6.026306     10.867842
  O      -0.831393      6.480912     10.610543
  H      -0.627990      6.910391      9.762706
  S       1.593911      4.374651     11.820118
  H       0.736835      3.982460     12.785644
  H       1.188129      3.382034     10.984591
