36
Coordinates from ORCA-job neb_4_64_CI_MEP.QMRegion E -2202.363903468447
  H       4.334190     -2.404008      5.598036
  O       4.039621     -2.888114      6.400109
  H       4.440324     -3.769750      6.276495
  H       4.933895     -2.175471      3.560097
  O       4.935294     -1.459841      4.234730
  H       4.113462     -0.927061      4.049912
  H       1.988431     -0.840233      5.115016
  O       1.477564     -1.399264      5.730639
  H       1.525083     -1.006669      6.617154
  H       3.982318     -1.062191      7.224935
  O       4.042828     -0.092985      7.251531
  H       4.682094      0.130216      6.564361
  H       6.592582      1.119152      4.678420
  O       6.203413      1.669608      5.388929
  H       6.340690      2.586517      5.042239
  H       7.523928     -0.613311      3.052724
  O       6.844039      0.047473      3.242241
  H       6.100999     -0.521065      3.579840
  H      -0.167749      3.377130      8.926561
  O       0.111659      2.484779      9.238150
  H      -0.677130      2.191032      9.749058
  H       1.937569      2.247709      8.504708
  O       2.669485      2.303488      7.871065
  H       3.014657      1.397001      7.791683
  H       4.442425      2.059455      5.113414
  O       3.496103      2.260986      4.991766
  H       3.089747      2.261643      5.868663
  H       7.238429     -2.320595      6.489011
  O       7.359568     -3.072535      5.884209
  H       6.570534     -3.622256      5.948955
  H       0.541100      0.395678      8.638692
  O       0.552438     -0.432289      8.148936
  H      -0.395924     -0.629203      8.013290
  S       7.460722     -0.381645      7.867372
  H       6.183488     -0.352978      8.306257
  H       7.208779      0.598467      6.963065
36
Coordinates from ORCA-job neb_4_64_CI_MEP.QMRegion E -2202.355776792833
  H       4.381563     -2.374650      5.513095
  O       4.092344     -2.834137      6.332258
  H       4.468987     -3.727191      6.220568
  H       4.961458     -2.132196      3.490297
  O       4.985939     -1.417952      4.164105
  H       4.156612     -0.884002      4.015928
  H       2.001852     -0.849055      5.088758
  O       1.484410     -1.409203      5.700018
  H       1.541515     -1.029773      6.590655
  H       4.130260     -0.901353      6.984593
  O       4.098007      0.065897      7.007522
  H       4.906966      0.369314      6.570995
  H       6.628831      1.121989      4.722020
  O       6.179433      1.666718      5.395929
  H       6.319258      2.581645      5.049609
  H       7.596839     -0.552062      2.991984
  O       6.908240      0.088304      3.208522
  H       6.173720     -0.495999      3.539993
  H      -0.151133      3.369415      8.909239
  O       0.125230      2.474799      9.218219
  H      -0.661429      2.186195      9.734323
  H       2.016514      2.258097      8.490884
  O       2.720164      2.347251      7.832140
  H       3.077014      1.450583      7.697839
  H       4.447129      2.050690      5.006753
  O       3.505626      2.282372      4.896032
  H       3.111339      2.276323      5.776310
  H       7.074789     -2.417224      6.555838
  O       7.315888     -3.098280      5.919303
  H       6.577378     -3.720629      5.913106
  H       0.568503      0.417707      8.568268
  O       0.574834     -0.432718      8.117742
  H      -0.374358     -0.630079      7.991175
  S       6.631339     -0.708339      9.214052
  H       5.307503     -0.923058      9.083359
  H       6.475504      0.591663      8.886728
36
Coordinates from ORCA-job neb_4_64_CI_MEP.QMRegion E -2202.353015210172
  H       4.371992     -2.385471      5.542300
  O       4.092619     -2.833871      6.371788
  H       4.463105     -3.729185      6.265966
  H       4.950165     -2.144107      3.520955
  O       4.969056     -1.434131      4.199818
  H       4.145232     -0.893634      4.040439
  H       1.998466     -0.842622      5.113122
  O       1.486526     -1.407856      5.723097
  H       1.530535     -1.029011      6.615935
  H       4.155095     -0.906009      7.014080
  O       4.175737      0.054897      7.130969
  H       4.956441      0.373219      6.654694
  H       6.614814      1.119409      4.732309
  O       6.164609      1.661828      5.407018
  H       6.310741      2.577997      5.068019
  H       7.578815     -0.572550      3.014841
  O       6.894080      0.074465      3.225794
  H       6.158114     -0.502611      3.561626
  H      -0.153215      3.367637      8.927496
  O       0.121920      2.472301      9.233202
  H      -0.664792      2.182967      9.749090
  H       2.002126      2.240684      8.510264
  O       2.710973      2.329504      7.856540
  H       3.089098      1.438761      7.747048
  H       4.438181      2.037724      5.046644
  O       3.496275      2.271015      4.936638
  H       3.102341      2.258953      5.817619
  H       6.970089     -2.435008      6.497855
  O       7.280906     -3.135364      5.918581
  H       6.563932     -3.783465      5.898844
  H       0.571120      0.391120      8.609171
  O       0.570232     -0.450327      8.142330
  H      -0.380612     -0.638880      8.013382
  S       6.208359     -0.506744      9.959242
  H       5.214764     -0.938225      9.149748
  H       5.872938      0.781944      9.731650
36
Coordinates from ORCA-job neb_4_64_CI_MEP.QMRegion E -2202.353005708412
  H       4.356632     -2.393576      5.556638
  O       4.081205     -2.832549      6.391475
  H       4.455732     -3.726648      6.297350
  H       4.947262     -2.157634      3.533137
  O       4.959811     -1.445298      4.210496
  H       4.137147     -0.906803      4.041405
  H       1.996608     -0.833497      5.120495
  O       1.490353     -1.400688      5.732885
  H       1.526582     -1.021071      6.626370
  H       4.221593     -0.895248      7.090149
  O       4.330511      0.046147      7.295506
  H       5.015804      0.385068      6.699503
  H       6.602758      1.123660      4.742927
  O       6.158931      1.667713      5.420513
  H       6.303453      2.583530      5.077973
  H       7.565098     -0.571733      3.027341
  O       6.878676      0.074316      3.236463
  H       6.142453     -0.504345      3.567909
  H      -0.152430      3.370495      8.922806
  O       0.122402      2.474939      9.228534
  H      -0.665379      2.185230      9.742703
  H       1.990049      2.223169      8.506767
  O       2.713238      2.315535      7.868731
  H       3.136442      1.441267      7.809928
  H       4.432033      2.031833      5.083975
  O       3.487610      2.255940      4.973564
  H       3.091634      2.238225      5.854582
  H       6.885093     -2.450203      6.444531
  O       7.255151     -3.155325      5.907955
  H       6.561550     -3.828694      5.875214
  H       0.572555      0.374200      8.642358
  O       0.567486     -0.452680      8.150853
  H      -0.384138     -0.636746      8.020792
  S       5.814168     -0.467367     10.444629
  H       5.431240     -0.499080      9.146986
  H       5.175391      0.707401     10.624266
36
Coordinates from ORCA-job neb_4_64_CI_MEP.QMRegion E -2202.353337745734
  H       4.347543     -2.389042      5.533674
  O       4.079358     -2.826612      6.371303
  H       4.457848     -3.719238      6.276935
  H       4.946170     -2.152715      3.517124
  O       4.963132     -1.438130      4.191873
  H       4.139061     -0.899669      4.028276
  H       1.995188     -0.841817      5.105426
  O       1.486116     -1.408750      5.716219
  H       1.533983     -1.037847      6.612102
  H       4.308608     -0.882067      7.041063
  O       4.370486      0.073889      7.189365
  H       5.047499      0.414171      6.582531
  H       6.612913      1.112210      4.686432
  O       6.166228      1.644906      5.372393
  H       6.309257      2.567951      5.050177
  H       7.569141     -0.591479      3.004536
  O       6.887679      0.059481      3.214614
  H       6.147059     -0.514178      3.547840
  H      -0.147435      3.361171      8.919157
  O       0.123365      2.462790      9.220491
  H      -0.664980      2.176265      9.736104
  H       2.029726      2.193705      8.483346
  O       2.728369      2.295832      7.821783
  H       3.175700      1.434199      7.757968
  H       4.431032      2.039494      5.038467
  O       3.486440      2.263080      4.940424
  H       3.098931      2.247706      5.825314
  H       6.865888     -2.460951      6.445355
  O       7.245612     -3.156808      5.903556
  H       6.559355     -3.837687      5.867390
  H       0.559578      0.403290      8.577403
  O       0.569055     -0.456254      8.144105
  H      -0.380221     -0.651606      8.012014
  S       5.582359     -0.310884     10.409513
  H       5.411095     -0.105504      9.081889
  H       4.248584     -0.268933     10.604988
36
Coordinates from ORCA-job neb_4_64_CI_MEP.QMRegion E -2202.354700172759
  H       4.333455     -2.391526      5.548479
  O       4.077184     -2.833042      6.387870
  H       4.456648     -3.724156      6.283411
  H       4.938803     -2.157801      3.527536
  O       4.953729     -1.445212      4.204383
  H       4.131623     -0.903830      4.037893
  H       1.995219     -0.838910      5.114171
  O       1.486936     -1.408245      5.723115
  H       1.525562     -1.035533      6.619534
  H       4.366852     -0.851211      7.023690
  O       4.413729      0.103193      7.179066
  H       5.109114      0.455853      6.599666
  H       6.617452      1.113714      4.683556
  O       6.176034      1.648260      5.371553
  H       6.312282      2.571380      5.046079
  H       7.552105     -0.607654      3.009699
  O       6.877221      0.050993      3.218556
  H       6.132703     -0.515722      3.554534
  H      -0.147203      3.356337      8.917561
  O       0.123742      2.457244      9.215618
  H      -0.661051      2.171906      9.736577
  H       2.088055      2.224326      8.527539
  O       2.743113      2.310350      7.821447
  H       3.215423      1.461744      7.784181
  H       4.427677      2.035167      5.043523
  O       3.484520      2.261449      4.943518
  H       3.093992      2.236615      5.826928
  H       6.832745     -2.449754      6.413562
  O       7.236889     -3.155288      5.902645
  H       6.556285     -3.841755      5.861353
  H       0.574910      0.422316      8.545836
  O       0.579036     -0.460179      8.158977
  H      -0.371059     -0.653414      8.029343
  S       4.585101     -0.198058     10.595932
  H       4.912059     -0.016904      9.294414
  H       3.437698     -0.820922     10.253868
36
Coordinates from ORCA-job neb_4_64_CI_MEP.QMRegion E -2202.357772618759
  H       4.353048     -2.377782      5.565974
  O       4.094574     -2.830786      6.397555
  H       4.468617     -3.722673      6.277195
  H       4.947283     -2.147771      3.530085
  O       4.964573     -1.433178      4.204528
  H       4.140837     -0.894448      4.037755
  H       1.998147     -0.839870      5.119393
  O       1.489062     -1.413373      5.723539
  H       1.521826     -1.052404      6.625156
  H       4.448753     -0.771469      7.069640
  O       4.570454      0.152637      7.325333
  H       5.226952      0.531641      6.716378
  H       6.619553      1.138863      4.706225
  O       6.182976      1.671909      5.397938
  H       6.307033      2.594415      5.064074
  H       7.570705     -0.561654      3.017004
  O       6.881628      0.080163      3.228859
  H       6.147343     -0.501157      3.563035
  H      -0.144489      3.341059      8.925887
  O       0.120861      2.437184      9.209451
  H      -0.659797      2.153260      9.735922
  H       2.157132      2.179536      8.565060
  O       2.764281      2.289714      7.820621
  H       3.318585      1.490131      7.819276
  H       4.421297      2.029508      5.083882
  O       3.477791      2.250085      4.975388
  H       3.079791      2.216269      5.856451
  H       6.850419     -2.412805      6.399345
  O       7.254265     -3.130666      5.905198
  H       6.567340     -3.810652      5.865528
  H       0.610505      0.369130      8.542476
  O       0.574890     -0.522499      8.176371
  H      -0.382130     -0.681629      8.044581
  S       3.109834     -0.146354     10.548681
  H       4.069234     -0.246801      9.602660
  H       2.257862     -0.919922      9.841955
