39
Coordinates from ORCA-job neb_169_294_CI_MEP.QMRegion E -2273.703450091371
  H      -1.618397     -0.852483     -4.567540
  O      -1.089986     -0.612476     -5.357635
  H      -0.355928     -0.080320     -5.018532
  H      -3.328699      1.535391     -4.114669
  O      -4.186005      1.081168     -3.908473
  H      -4.382294      1.236736     -2.943595
  H      -1.142889      1.588374     -3.921516
  O      -1.822269      2.186102     -4.293171
  H      -1.473657      2.562125     -5.126768
  H      -5.212149      5.748010     -5.542358
  O      -4.599051      4.984533     -5.619817
  H      -3.847573      5.271037     -6.165811
  H      -5.598368      3.459716     -5.606304
  O      -6.092947      2.769685     -5.122703
  H      -5.398286      2.270961     -4.647822
  H      -5.218456     -0.135487     -4.661017
  O      -5.807007     -0.848296     -4.980114
  H      -6.666836     -0.419276     -5.139255
  H      -7.456837      1.605919     -5.238638
  O      -8.012189      0.841111     -4.986762
  H      -8.923199      1.221093     -4.889044
  H      -1.753495      6.286702     -6.978311
  O      -2.122785      5.444160     -6.698589
  H      -1.848614      5.339461     -5.738470
  H      -4.084333     -3.131649     -4.868995
  O      -4.219525     -3.029146     -5.842810
  H      -4.768380     -2.233703     -5.899875
  H       0.871146      2.998128     -7.178695
  O       1.776163      2.630235     -7.196209
  H       1.746145      1.857980     -7.793233
  H      -1.400447      3.766023     -7.084602
  O      -0.871088      3.008646     -6.783256
  H      -1.102108      2.209353     -7.314140
  H      -0.144895      0.346160     -8.198950
  O      -1.055838      0.564879     -7.934836
  H      -1.189688      0.096782     -7.088037
  S      -4.382621      1.444366     -8.096967
  H      -3.219858      0.903535     -8.518826
  H      -4.625076      0.401480     -7.272480
39
Coordinates from ORCA-job neb_169_294_CI_MEP.QMRegion E -2273.702576523046
  H      -1.631800     -0.876886     -4.552130
  O      -1.095344     -0.636741     -5.337946
  H      -0.363091     -0.107391     -4.992382
  H      -3.330628      1.519888     -4.092435
  O      -4.188862      1.063710     -3.894243
  H      -4.387420      1.215428     -2.927999
  H      -1.151221      1.570053     -3.897413
  O      -1.829833      2.167441     -4.273782
  H      -1.472038      2.549577     -5.101091
  H      -5.209724      5.740643     -5.514308
  O      -4.598066      4.975201     -5.591487
  H      -3.841413      5.261405     -6.132273
  H      -5.580124      3.463286     -5.553691
  O      -6.082257      2.756987     -5.100334
  H      -5.401184      2.258475     -4.605240
  H      -5.237333     -0.145695     -4.653225
  O      -5.825159     -0.862585     -4.962017
  H      -6.687109     -0.436776     -5.115609
  H      -7.466438      1.601025     -5.215486
  O      -8.023657      0.836066     -4.971268
  H      -8.933642      1.219682     -4.867959
  H      -1.767094      6.288167     -6.944798
  O      -2.131658      5.440632     -6.674513
  H      -1.851968      5.329290     -5.715791
  H      -4.097026     -3.144220     -4.866937
  O      -4.230778     -3.036628     -5.840299
  H      -4.777699     -2.239292     -5.893485
  H       0.869462      2.990993     -7.157408
  O       1.774466      2.624000     -7.186753
  H       1.739540      1.851672     -7.783494
  H      -1.404074      3.750752     -7.051060
  O      -0.868467      3.001955     -6.739192
  H      -1.093784      2.200928     -7.268303
  H      -0.128374      0.321990     -8.156382
  O      -1.037868      0.546919     -7.893360
  H      -1.187486      0.069688     -7.053984
  S      -3.991099      1.897257     -8.806144
  H      -2.865789      1.156210     -8.905856
  H      -4.566454      0.975577     -8.004014
39
Coordinates from ORCA-job neb_169_294_CI_MEP.QMRegion E -2273.702453601075
  H      -1.628255     -0.871075     -4.557978
  O      -1.093504     -0.630454     -5.344382
  H      -0.360443     -0.101072     -5.000201
  H      -3.325166      1.527119     -4.096278
  O      -4.184295      1.072589     -3.898885
  H      -4.383614      1.222732     -2.932974
  H      -1.146165      1.576146     -3.906413
  O      -1.824118      2.174763     -4.281324
  H      -1.465178      2.561581     -5.106097
  H      -5.204568      5.749546     -5.521111
  O      -4.591322      4.985475     -5.599382
  H      -3.834379      5.273681     -6.139241
  H      -5.570597      3.478924     -5.555472
  O      -6.072648      2.766862     -5.110572
  H      -5.393411      2.267589     -4.613564
  H      -5.232493     -0.140980     -4.661885
  O      -5.821333     -0.859122     -4.964843
  H      -6.680763     -0.431214     -5.125483
  H      -7.461905      1.611148     -5.222483
  O      -8.018418      0.845941     -4.978452
  H      -8.928951      1.228286     -4.875347
  H      -1.762090      6.302797     -6.949808
  O      -2.124834      5.454346     -6.679812
  H      -1.844365      5.340720     -5.722305
  H      -4.096685     -3.137777     -4.872860
  O      -4.228065     -3.033213     -5.846493
  H      -4.769498     -2.232458     -5.904783
  H       0.877161      2.999825     -7.163345
  O       1.780017      2.627680     -7.191278
  H       1.743194      1.857520     -7.790247
  H      -1.397786      3.759535     -7.064012
  O      -0.860306      3.014666     -6.746297
  H      -1.082702      2.211988     -7.273789
  H      -0.118029      0.329425     -8.157370
  O      -1.028505      0.554673     -7.897493
  H      -1.182818      0.075008     -7.060579
  S      -3.800936      2.071071     -9.067507
  H      -2.728344      1.249038     -9.043641
  H      -4.508709      1.229894     -8.282852
39
Coordinates from ORCA-job neb_169_294_CI_MEP.QMRegion E -2273.702520274133
  H      -1.628577     -0.873366     -4.557828
  O      -1.095103     -0.632096     -5.344954
  H      -0.361117     -0.103426     -5.001838
  H      -3.318416      1.526967     -4.093579
  O      -4.178837      1.074280     -3.897686
  H      -4.379413      1.223737     -2.931886
  H      -1.140645      1.575512     -3.905659
  O      -1.817443      2.175697     -4.280466
  H      -1.458334      2.563289     -5.104929
  H      -5.196074      5.753712     -5.521982
  O      -4.580899      4.991312     -5.599959
  H      -3.820975      5.281777     -6.135553
  H      -5.553812      3.491282     -5.547409
  O      -6.058063      2.773390     -5.113910
  H      -5.382133      2.270378     -4.616019
  H      -5.232583     -0.141448     -4.665623
  O      -5.823140     -0.860181     -4.962462
  H      -6.680059     -0.429795     -5.129132
  H      -7.454986      1.620692     -5.223988
  O      -8.011710      0.855944     -4.979796
  H      -8.922873      1.236847     -4.876869
  H      -1.757662      6.312236     -6.945417
  O      -2.118399      5.462606     -6.676626
  H      -1.836687      5.346122     -5.719705
  H      -4.098209     -3.132694     -4.873226
  O      -4.227255     -3.033748     -5.847646
  H      -4.764424     -2.230921     -5.913526
  H       0.879005      3.002335     -7.166852
  O       1.780019      2.626130     -7.190139
  H       1.744336      1.857599     -7.791303
  H      -1.397705      3.761031     -7.073966
  O      -0.864562      3.016967     -6.747111
  H      -1.080674      2.213091     -7.275030
  H      -0.119352      0.332222     -8.155148
  O      -1.030545      0.555891     -7.895839
  H      -1.187075      0.071103     -7.062351
  S      -3.557775      2.273738     -9.372471
  H      -2.574410      1.368993     -9.167890
  H      -4.412530      1.577048     -8.593093
39
Coordinates from ORCA-job neb_169_294_CI_MEP.QMRegion E -2273.702448234983
  H      -1.621296     -0.865028     -4.559156
  O      -1.088761     -0.625103     -5.346911
  H      -0.355312     -0.093976     -5.005853
  H      -3.313466      1.535153     -4.094519
  O      -4.174256      1.082715     -3.899674
  H      -4.375448      1.230514     -2.934096
  H      -1.136066      1.583454     -3.910404
  O      -1.813956      2.183006     -4.283640
  H      -1.454503      2.577553     -5.104872
  H      -5.195021      5.760942     -5.525667
  O      -4.577920      5.000314     -5.607154
  H      -3.815631      5.297258     -6.136301
  H      -5.550989      3.497360     -5.549006
  O      -6.053834      2.779058     -5.115147
  H      -5.377260      2.276433     -4.617402
  H      -5.222453     -0.136185     -4.665766
  O      -5.812517     -0.855174     -4.963153
  H      -6.668561     -0.424624     -5.132668
  H      -7.450461      1.624813     -5.226271
  O      -8.007311      0.859766     -4.983665
  H      -8.918404      1.240404     -4.880901
  H      -1.755655      6.323757     -6.950192
  O      -2.116167      5.474371     -6.680292
  H      -1.831389      5.355936     -5.725207
  H      -4.093023     -3.130586     -4.875556
  O      -4.221337     -3.030531     -5.849811
  H      -4.754665     -2.225043     -5.915112
  H       0.887769      3.011617     -7.165504
  O       1.787131      2.631506     -7.192002
  H       1.748186      1.864675     -7.794612
  H      -1.380438      3.769432     -7.085822
  O      -0.851957      3.029822     -6.742385
  H      -1.061105      2.224025     -7.270643
  H      -0.113429      0.339254     -8.148946
  O      -1.023745      0.567927     -7.890924
  H      -1.185305      0.080625     -7.059754
  S      -3.228221      2.481467     -9.607750
  H      -2.398587      1.460196     -9.297755
  H      -4.240593      1.918495     -8.914674
39
Coordinates from ORCA-job neb_169_294_CI_MEP.QMRegion E -2273.702507851306
  H      -1.616680     -0.859746     -4.560782
  O      -1.086000     -0.619972     -5.349592
  H      -0.352313     -0.087743     -5.010330
  H      -3.308359      1.538988     -4.093522
  O      -4.170170      1.087705     -3.899910
  H      -4.371988      1.234097     -2.934397
  H      -1.132064      1.588494     -3.911875
  O      -1.811074      2.187480     -4.283676
  H      -1.453311      2.585752     -5.104123
  H      -5.194492      5.764606     -5.528370
  O      -4.574883      5.006185     -5.611680
  H      -3.809907      5.309191     -6.133969
  H      -5.545701      3.499578     -5.548651
  O      -6.048264      2.781921     -5.114077
  H      -5.371366      2.278851     -4.616890
  H      -5.215918     -0.133825     -4.666644
  O      -5.806803     -0.852915     -4.961973
  H      -6.661476     -0.421275     -5.134978
  H      -7.445003      1.628023     -5.227761
  O      -8.002747      0.863425     -4.985814
  H      -8.913756      1.243940     -4.883715
  H      -1.756178      6.331042     -6.952892
  O      -2.115767      5.481728     -6.681554
  H      -1.828518      5.361969     -5.727595
  H      -4.088273     -3.127793     -4.876128
  O      -4.217348     -3.029276     -5.850395
  H      -4.746928     -2.221468     -5.916916
  H       0.890963      3.017961     -7.165014
  O       1.788994      2.634819     -7.192027
  H       1.749223      1.870285     -7.797192
  H      -1.366560      3.775239     -7.096604
  O      -0.849283      3.035773     -6.736415
  H      -1.049240      2.228730     -7.267110
  H      -0.115468      0.347512     -8.146577
  O      -1.025827      0.579979     -7.891678
  H      -1.192409      0.089581     -7.063246
  S      -2.835292      2.705439     -9.850541
  H      -2.204235      1.589960     -9.421346
  H      -3.991208      2.326926     -9.266113
39
Coordinates from ORCA-job neb_169_294_CI_MEP.QMRegion E -2273.702633691149
  H      -1.621410     -0.860956     -4.557071
  O      -1.093462     -0.619137     -5.347499
  H      -0.359791     -0.086753     -5.008594
  H      -3.314566      1.538212     -4.082225
  O      -4.175177      1.081624     -3.895293
  H      -4.380968      1.226513     -2.929921
  H      -1.137660      1.589437     -3.905911
  O      -1.819579      2.185763     -4.276802
  H      -1.466344      2.585015     -5.098884
  H      -5.208493      5.755983     -5.528955
  O      -4.586367      4.999493     -5.612712
  H      -3.817922      5.309561     -6.126009
  H      -5.547028      3.487931     -5.541302
  O      -6.052027      2.773217     -5.105040
  H      -5.375900      2.270176     -4.606394
  H      -5.219136     -0.142710     -4.659165
  O      -5.811003     -0.860844     -4.954777
  H      -6.665607     -0.428978     -5.127101
  H      -7.450082      1.617528     -5.223507
  O      -8.008340      0.853556     -4.980716
  H      -8.918628      1.235715     -4.878103
  H      -1.775944      6.327491     -6.952774
  O      -2.134486      5.478506     -6.679086
  H      -1.840993      5.357577     -5.726973
  H      -4.087100     -3.134398     -4.868231
  O      -4.216301     -3.034791     -5.842756
  H      -4.748819     -2.229113     -5.908508
  H       0.877979      3.018717     -7.158185
  O       1.776940      2.637955     -7.186852
  H       1.737630      1.872480     -7.791067
  H      -1.370952      3.771921     -7.104194
  O      -0.869992      3.030361     -6.726008
  H      -1.055091      2.223350     -7.263430
  H      -0.131802      0.354301     -8.141621
  O      -1.043700      0.589361     -7.895023
  H      -1.215621      0.097819     -7.068160
  S      -2.276584      2.985591    -10.127632
  H      -1.938911      1.808298     -9.558020
  H      -3.555330      2.874693     -9.712279
