36
Coordinates from ORCA-job neb_12_326_CI_MEP.QMRegion E -2202.345260387227
  H      -3.575458      6.396177     -0.449907
  O      -3.369301      7.055522     -1.167998
  H      -3.182408      7.911002     -0.712894
  H      -3.992570      5.821428     -2.531205
  O      -4.288197      4.982146     -2.898633
  H      -4.072135      4.983397     -3.860479
  H      -0.350374      6.881188     -2.234747
  O      -1.098075      7.320411     -2.716221
  H      -1.867464      7.136046     -2.127670
  H      -0.580576      4.577492     -4.055404
  O      -1.347282      5.131815     -4.310030
  H      -1.231805      5.963072     -3.807909
  H      -5.098515      5.687005     -5.588245
  O      -4.464035      4.942867     -5.607294
  H      -3.744995      5.167559     -6.221686
  H      -0.501209      8.884430     -1.995688
  O      -0.307674      9.632540     -1.386738
  H       0.436832      9.311214     -0.827922
  H      -1.745777      9.585915     -0.575707
  O      -2.674152      9.495922     -0.235086
  H      -3.164984     10.166389     -0.724317
  H      -1.495288      6.017307     -7.285713
  O      -2.018353      5.386946     -6.787934
  H      -1.638151      5.369655     -5.853540
  H      -2.281795     11.111883     -3.090579
  O      -3.202565     10.934566     -2.816633
  H      -3.648801     11.768560     -2.996154
  H      -5.918361      7.356387     -4.260152
  O      -6.397841      6.696718     -4.798581
  H      -6.671221      5.990379     -4.161787
  H      -4.327753      9.213860     -3.289505
  O      -4.880727      8.428669     -3.173548
  H      -4.510062      7.987517     -2.390860
  S      -0.074737     12.059460     -3.454474
  H       0.132136     11.148770     -2.462301
  H       0.451292     11.236095     -4.383757
36
Coordinates from ORCA-job neb_12_326_CI_MEP.QMRegion E -2202.345005221938
  H      -3.517126      6.472708     -0.386417
  O      -3.306383      7.143190     -1.091116
  H      -3.114132      7.992437     -0.633898
  H      -3.983386      5.856875     -2.447956
  O      -4.283223      5.027713     -2.832517
  H      -4.063869      5.046950     -3.794102
  H      -0.317186      6.970797     -2.217657
  O      -1.057505      7.426055     -2.699044
  H      -1.827696      7.248254     -2.111091
  H      -0.541195      4.640703     -4.027181
  O      -1.296213      5.209926     -4.284365
  H      -1.178556      6.038288     -3.779931
  H      -5.089697      5.729270     -5.499546
  O      -4.458003      4.982340     -5.529933
  H      -3.740586      5.214124     -6.143516
  H      -0.474633      9.006201     -1.992136
  O      -0.237862      9.799086     -1.463574
  H       0.485066      9.473366     -0.885131
  H      -1.651289      9.759796     -0.566020
  O      -2.551467      9.611596     -0.170626
  H      -3.096761     10.331374     -0.501619
  H      -1.523159      6.052611     -7.273779
  O      -2.019056      5.414220     -6.758457
  H      -1.616961      5.413217     -5.835451
  H      -2.465371     10.847618     -3.256514
  O      -3.340015     10.950816     -2.834166
  H      -3.681660     11.755372     -3.238119
  H      -5.935399      7.396779     -4.159505
  O      -6.390794      6.738923     -4.721282
  H      -6.676416      6.021636     -4.102986
  H      -4.422141      9.316079     -3.157629
  O      -4.867318      8.455748     -3.100504
  H      -4.482057      8.039410     -2.311932
  S      -0.590904     10.769030     -4.733493
  H       0.137466     10.572928     -3.613782
  H      -0.801060      9.446142     -4.889706
36
Coordinates from ORCA-job neb_12_326_CI_MEP.QMRegion E -2202.344339319767
  H      -3.551768      6.473428     -0.417261
  O      -3.361022      7.143012     -1.128047
  H      -3.185547      7.996056     -0.674133
  H      -3.994279      5.869045     -2.502610
  O      -4.277109      5.028287     -2.875247
  H      -4.070415      5.043636     -3.839474
  H      -0.336813      6.955873     -2.219165
  O      -1.081767      7.400395     -2.704757
  H      -1.855095      7.229145     -2.118283
  H      -0.541354      4.640738     -4.073400
  O      -1.292747      5.210457     -4.338063
  H      -1.193249      6.025023     -3.809495
  H      -5.108294      5.733237     -5.546959
  O      -4.471729      4.989999     -5.578283
  H      -3.762089      5.219807     -6.201370
  H      -0.495445      9.008817     -2.002172
  O      -0.286971      9.795286     -1.456517
  H       0.444799      9.481150     -0.884240
  H      -1.694324      9.760448     -0.573307
  O      -2.592131      9.595132     -0.172896
  H      -3.113166     10.386781     -0.330523
  H      -1.546551      6.061004     -7.338712
  O      -2.034204      5.422903     -6.814824
  H      -1.627756      5.431919     -5.896504
  H      -2.490909     10.634439     -3.169020
  O      -3.393676     10.903612     -2.933649
  H      -3.576855     11.579618     -3.594985
  H      -5.960941      7.398962     -4.197623
  O      -6.400809      6.728454     -4.758788
  H      -6.681089      6.014121     -4.135049
  H      -4.535288      9.325641     -3.161753
  O      -5.010533      8.481033     -3.090398
  H      -4.613369      8.049282     -2.317488
  S      -0.811299     10.256245     -5.016986
  H       0.153227     10.409067     -4.089814
  H      -1.007210      8.969235     -4.666788
36
Coordinates from ORCA-job neb_12_326_CI_MEP.QMRegion E -2202.344216501544
  H      -3.597503      6.403667     -0.427474
  O      -3.419672      7.078311     -1.142044
  H      -3.275776      7.929931     -0.681791
  H      -4.034985      5.833402     -2.516549
  O      -4.298850      4.980854     -2.874956
  H      -4.101144      4.985000     -3.842401
  H      -0.388313      6.875503     -2.206328
  O      -1.153311      7.298290     -2.680546
  H      -1.918484      7.122535     -2.081354
  H      -0.588361      4.570351     -4.072746
  O      -1.362911      5.116653     -4.321830
  H      -1.274613      5.928626     -3.788254
  H      -5.148932      5.683889     -5.537689
  O      -4.501158      4.947888     -5.563141
  H      -3.804257      5.164166     -6.204762
  H      -0.570603      8.884709     -1.971192
  O      -0.377441      9.682750     -1.434477
  H       0.380554      9.404749     -0.876498
  H      -1.758076      9.692315     -0.546456
  O      -2.670679      9.532999     -0.171572
  H      -3.136396     10.372413     -0.147589
  H      -1.597973      6.018079     -7.307803
  O      -2.088599      5.370500     -6.798926
  H      -1.692584      5.365727     -5.874728
  H      -2.612538     10.403482     -2.774861
  O      -3.486859     10.751075     -2.991346
  H      -3.330508     11.146630     -3.857174
  H      -5.996822      7.333008     -4.201077
  O      -6.427781      6.670994     -4.781743
  H      -6.723731      5.955498     -4.162477
  H      -4.654389      9.216204     -3.127423
  O      -5.157243      8.388722     -3.033572
  H      -4.738616      7.941698     -2.281368
  S      -0.902419     10.007663     -5.129785
  H       0.018310     10.292727     -4.188655
  H      -1.142492      8.796596     -4.586686
36
Coordinates from ORCA-job neb_12_326_CI_MEP.QMRegion E -2202.344437114371
  H      -3.604916      6.403520     -0.456376
  O      -3.424841      7.082148     -1.165155
  H      -3.302756      7.928127     -0.696900
  H      -4.026045      5.838777     -2.584293
  O      -4.286673      4.979702     -2.927967
  H      -4.096662      4.976932     -3.896577
  H      -0.379333      6.883776     -2.235647
  O      -1.134996      7.311275     -2.718853
  H      -1.904873      7.137222     -2.128543
  H      -0.575723      4.591013     -4.126106
  O      -1.336933      5.147255     -4.390419
  H      -1.251681      5.955722     -3.850921
  H      -5.156756      5.667704     -5.605783
  O      -4.500842      4.938649     -5.624558
  H      -3.810944      5.152771     -6.273650
  H      -0.573858      8.901520     -2.015097
  O      -0.377249      9.689427     -1.462932
  H       0.381679      9.402108     -0.911667
  H      -1.737420      9.709196     -0.561841
  O      -2.663703      9.578820     -0.200901
  H      -3.031532     10.441456      0.007519
  H      -1.589874      6.001158     -7.400340
  O      -2.085461      5.376961     -6.867470
  H      -1.682128      5.391064     -5.948066
  H      -2.791297     10.495562     -2.563179
  O      -3.476288     10.765299     -3.187284
  H      -2.971420     10.896224     -4.006075
  H      -5.974335      7.315325     -4.298600
  O      -6.437699      6.646860     -4.845384
  H      -6.719076      5.947130     -4.203540
  H      -4.547352      9.219268     -3.325299
  O      -4.996566      8.356791     -3.250180
  H      -4.649790      7.970652     -2.432734
  S      -1.038651     10.050694     -5.407803
  H      -0.146419     10.183421     -4.406603
  H      -1.410102      8.830294     -4.970342
36
Coordinates from ORCA-job neb_12_326_CI_MEP.QMRegion E -2202.344908356985
  H      -3.617134      6.393777     -0.453383
  O      -3.437961      7.079902     -1.155996
  H      -3.334792      7.921130     -0.678030
  H      -4.024139      5.823807     -2.598824
  O      -4.289590      4.963889     -2.934256
  H      -4.100719      4.954712     -3.903422
  H      -0.388194      6.872190     -2.230585
  O      -1.144601      7.295305     -2.715679
  H      -1.912865      7.129280     -2.121817
  H      -0.583361      4.579670     -4.126669
  O      -1.346390      5.134680     -4.388535
  H      -1.261615      5.941310     -3.845637
  H      -5.167198      5.639028     -5.620394
  O      -4.503431      4.917376     -5.630085
  H      -3.815504      5.128452     -6.283075
  H      -0.591856      8.896187     -1.994157
  O      -0.402361      9.669426     -1.420868
  H       0.364068      9.378189     -0.881587
  H      -1.752866      9.702589     -0.539911
  O      -2.686503      9.600971     -0.183479
  H      -2.984403     10.463083      0.127165
  H      -1.601301      5.999291     -7.396451
  O      -2.093271      5.369305     -6.867408
  H      -1.690951      5.381680     -5.947513
  H      -2.897657     10.529004     -2.535563
  O      -3.464805     10.706375     -3.296746
  H      -2.850263     10.677495     -4.048793
  H      -5.961731      7.275632     -4.339969
  O      -6.453565      6.615057     -4.871200
  H      -6.731136      5.922288     -4.219182
  H      -4.464896      9.155008     -3.432475
  O      -4.839297      8.254551     -3.391692
  H      -4.580625      7.924419     -2.517499
  S      -1.337757      9.633495     -5.653721
  H      -0.362970      9.548252     -4.727914
  H      -1.934061      8.518380     -5.183714
36
Coordinates from ORCA-job neb_12_326_CI_MEP.QMRegion E -2202.347190316594
  H      -3.574877      6.387136     -0.450404
  O      -3.372684      7.070484     -1.150241
  H      -3.275176      7.914033     -0.671227
  H      -3.997755      5.808066     -2.559301
  O      -4.293093      4.964597     -2.910547
  H      -4.110131      4.961845     -3.882890
  H      -0.340533      6.892806     -2.247461
  O      -1.093188      7.320178     -2.737120
  H      -1.860226      7.150996     -2.143837
  H      -0.585316      4.574150     -4.120524
  O      -1.352620      5.129668     -4.369116
  H      -1.243724      5.942774     -3.841951
  H      -5.160992      5.655008     -5.593075
  O      -4.509848      4.925445     -5.587277
  H      -3.795038      5.125212     -6.223985
  H      -0.549697      8.931283     -2.005669
  O      -0.390515      9.697109     -1.414654
  H       0.377050      9.413673     -0.873108
  H      -1.743388      9.685199     -0.531098
  O      -2.668312      9.568243     -0.158597
  H      -3.003175     10.432703      0.091684
  H      -1.878195      6.146368     -7.278741
  O      -2.171459      5.342521     -6.842957
  H      -1.756872      5.364380     -5.931699
  H      -2.468664     10.636855     -2.811242
  O      -3.159102     10.696491     -3.482186
  H      -2.693060     10.491461     -4.309613
  H      -5.941084      7.311497     -4.276281
  O      -6.438782      6.660408     -4.806579
  H      -6.713992      5.954610     -4.166212
  H      -4.261742      9.177953     -3.415355
  O      -4.617993      8.268573     -3.429714
  H      -4.364164      7.906065     -2.565129
  S      -2.041237      8.726564     -5.959718
  H      -1.111498      8.337914     -5.065976
  H      -3.025017      8.150600     -5.227626
