18
Coordinates from ORCA-job neb_9_38_CI_MEP.QMRegion E -1774.359985756492
  H      -7.321273      1.683718     -5.113998
  O      -7.924659      0.938029     -4.934785
  H      -8.824210      1.343969     -4.887509
  H     -10.124243      3.075761     -4.972217
  O     -10.262105      2.181899     -4.622745
  H     -10.270594      2.369661     -3.653805
  H      -8.902458     -2.887373     -3.944174
  O      -9.465772     -2.093049     -3.817113
  H      -9.095698     -1.437092     -4.418545
  H     -10.203841      4.148924     -2.690149
  O     -10.352488      3.358411     -2.140791
  H      -9.542363      3.306653     -1.588654
  H      -9.766020      5.936868     -4.613197
  O     -10.208273      5.083117     -4.413922
  H     -11.158350      5.249948     -4.497043
  S     -13.317810      3.806511     -3.925101
  H     -12.678883      3.639863     -2.748606
  H     -12.547272      2.856664     -4.501260
18
Coordinates from ORCA-job neb_9_38_CI_MEP.QMRegion E -1774.354523329634
  H      -7.272287      1.683039     -5.096736
  O      -7.921646      0.974332     -4.922124
  H      -8.777724      1.464962     -4.853367
  H     -10.026013      3.332301     -4.936673
  O     -10.110298      2.429231     -4.595265
  H     -10.199017      2.616026     -3.625627
  H      -8.834352     -2.776650     -3.985827
  O      -9.374761     -1.969999     -3.847829
  H      -8.933525     -1.279768     -4.357367
  H     -10.309192      4.307455     -2.571095
  O     -10.369914      3.464662     -2.092960
  H      -9.529169      3.413124     -1.588639
  H      -9.809214      6.049638     -4.576021
  O     -10.353996      5.260387     -4.352740
  H     -11.259451      5.537985     -4.522067
  S     -13.487287      2.192176     -4.441543
  H     -13.002754      1.833466     -3.235197
  H     -12.231974      2.220145     -4.947855
18
Coordinates from ORCA-job neb_9_38_CI_MEP.QMRegion E -1774.353703096153
  H      -7.264355      1.673565     -5.106396
  O      -7.905592      0.957115     -4.934182
  H      -8.770434      1.433657     -4.886891
  H     -10.007736      3.301282     -4.978948
  O     -10.099441      2.398638     -4.639290
  H     -10.181735      2.580716     -3.667648
  H      -8.830842     -2.794935     -3.983823
  O      -9.359259     -1.977693     -3.859319
  H      -8.907425     -1.307425     -4.385695
  H     -10.298074      4.262352     -2.604979
  O     -10.354090      3.415020     -2.135455
  H      -9.524048      3.376213     -1.612429
  H      -9.792962      6.032867     -4.597602
  O     -10.337053      5.237915     -4.392797
  H     -11.239227      5.517321     -4.573137
  S     -13.420712      1.714002     -4.631232
  H     -12.951250      1.242003     -3.458186
  H     -12.162218      2.019677     -5.026350
18
Coordinates from ORCA-job neb_9_38_CI_MEP.QMRegion E -1774.353718059509
  H      -7.290524      1.684613     -5.099610
  O      -7.923087      0.961052     -4.926281
  H      -8.796743      1.421018     -4.884356
  H     -10.063507      3.261651     -4.985476
  O     -10.156354      2.360749     -4.642211
  H     -10.231845      2.543198     -3.670106
  H      -8.862938     -2.807876     -3.963941
  O      -9.394547     -1.992873     -3.839783
  H      -8.952013     -1.326085     -4.378442
  H     -10.329885      4.226807     -2.602333
  O     -10.374238      3.377241     -2.136409
  H      -9.542960      3.348424     -1.615610
  H      -9.808296      6.023245     -4.596571
  O     -10.356020      5.229279     -4.397825
  H     -11.254392      5.510817     -4.590945
  S     -13.357997      1.218789     -4.804000
  H     -12.840573      0.575105     -3.737690
  H     -12.158538      1.795218     -5.056669
18
Coordinates from ORCA-job neb_9_38_CI_MEP.QMRegion E -1774.353730612481
  H      -7.283996      1.686080     -5.097313
  O      -7.917445      0.962244     -4.927374
  H      -8.791875      1.421970     -4.888803
  H     -10.062188      3.247067     -5.003161
  O     -10.156289      2.349428     -4.652274
  H     -10.228223      2.537938     -3.680945
  H      -8.850534     -2.786617     -3.979312
  O      -9.368159     -1.962063     -3.860607
  H      -8.905585     -1.301342     -4.390194
  H     -10.299568      4.228033     -2.629738
  O     -10.362276      3.383337     -2.156489
  H      -9.537726      3.346457     -1.625942
  H      -9.784302      6.018068     -4.601946
  O     -10.329822      5.221208     -4.409203
  H     -11.229449      5.507804     -4.592087
  S     -13.148157      0.728734     -5.018391
  H     -12.496631     -0.061991     -4.140590
  H     -12.082866      1.561206     -5.097784
18
Coordinates from ORCA-job neb_9_38_CI_MEP.QMRegion E -1774.353935461117
  H      -7.255650      1.666614     -5.113214
  O      -7.881706      0.936593     -4.942944
  H      -8.765233      1.380718     -4.919316
  H     -10.038097      3.164766     -5.057366
  O     -10.130110      2.275057     -4.688281
  H     -10.191394      2.477490     -3.718297
  H      -8.813278     -2.781620     -4.010621
  O      -9.302513     -1.936500     -3.912364
  H      -8.807059     -1.304874     -4.447939
  H     -10.235419      4.180592     -2.703161
  O     -10.323070      3.344512     -2.217654
  H      -9.516337      3.310951     -1.659820
  H      -9.734641      5.981587     -4.630902
  O     -10.263230      5.169497     -4.456547
  H     -11.170758      5.453190     -4.600714
  S     -12.827894      0.246560     -5.253228
  H     -12.013844     -0.586054     -4.570515
  H     -11.919846      1.248831     -5.174585
18
Coordinates from ORCA-job neb_9_38_CI_MEP.QMRegion E -1774.354754059126
  H      -7.289338      1.667610     -5.173242
  O      -7.906190      0.935706     -4.982994
  H      -8.794331      1.369770     -4.934648
  H     -10.174709      3.093370     -5.065891
  O     -10.193715      2.219471     -4.654418
  H     -10.213846      2.458235     -3.690384
  H      -8.780268     -2.755390     -4.127510
  O      -9.247253     -1.898668     -4.024330
  H      -8.752961     -1.278379     -4.574600
  H     -10.192966      4.174301     -2.693447
  O     -10.291488      3.340197     -2.205684
  H      -9.479976      3.296065     -1.654066
  H      -9.752030      5.983003     -4.596453
  O     -10.298286      5.189419     -4.396110
  H     -11.201095      5.514866     -4.458192
  S     -12.358212     -0.420105     -5.530393
  H     -11.367744     -1.193805     -5.033087
  H     -11.712577      0.716079     -5.179300
