21
Coordinates from ORCA-job neb_24_139_CI_MEP.QMRegion E -1845.692265591056
  H       3.368335      3.496149     -3.534323
  O       3.168906      4.455546     -3.448035
  H       2.188911      4.443210     -3.498232
  H       3.339286      2.833733     -6.660445
  O       4.214749      2.688173     -6.254085
  H       4.013880      2.382039     -5.344334
  H       3.717510      7.098800     -1.136083
  O       3.904419      8.051954     -1.306601
  H       4.263925      8.026525     -2.203143
  H       4.228020      6.120934     -3.789108
  O       4.910406      6.808127     -3.708710
  H       5.655914      6.322681     -3.328999
  H       6.924180      3.364342     -4.517941
  O       6.959459      2.710981     -5.237948
  H       6.189625      2.920085     -5.785977
  H       5.324401      4.079182     -2.970228
  O       6.276088      4.202201     -2.883380
  H       6.503574      3.585215     -2.159365
  S       5.526763      6.136808     -7.066490
  H       4.735791      5.097845     -6.726203
  H       5.401283      6.690312     -5.837209
21
Coordinates from ORCA-job neb_24_139_CI_MEP.QMRegion E -1845.689420941889
  H       3.370020      3.463356     -3.532811
  O       3.167389      4.421835     -3.435362
  H       2.187659      4.404168     -3.491791
  H       3.353538      2.807281     -6.661034
  O       4.220279      2.644800     -6.245436
  H       4.006090      2.328037     -5.342845
  H       3.716566      7.065779     -1.127993
  O       3.909085      8.018131     -1.305486
  H       4.276367      7.973701     -2.197838
  H       4.259039      6.039517     -3.788109
  O       4.942908      6.719486     -3.661417
  H       5.672370      6.213225     -3.277406
  H       6.907686      3.306361     -4.540934
  O       6.946838      2.662253     -5.269110
  H       6.151646      2.843733     -5.792799
  H       5.322522      3.993111     -2.982651
  O       6.274963      4.121800     -2.913890
  H       6.512028      3.520791     -2.178187
  S       5.653627      6.956383     -6.985945
  H       4.422550      6.409881     -6.951687
  H       5.652502      7.076120     -5.637211
21
Coordinates from ORCA-job neb_24_139_CI_MEP.QMRegion E -1845.689384612659
  H       3.365219      3.490003     -3.532261
  O       3.167640      4.448365     -3.436284
  H       2.187864      4.437295     -3.484212
  H       3.378114      2.853629     -6.651767
  O       4.234704      2.659918     -6.230771
  H       4.004326      2.342509     -5.332118
  H       3.721293      7.093828     -1.132747
  O       3.914912      8.044790     -1.309840
  H       4.300644      8.001893     -2.194597
  H       4.287548      6.070204     -3.804383
  O       4.984418      6.729114     -3.646496
  H       5.680348      6.199593     -3.230888
  H       6.898918      3.331434     -4.539181
  O       6.933586      2.684767     -5.264739
  H       6.127598      2.856870     -5.776842
  H       5.323314      4.009314     -2.978048
  O       6.273629      4.150972     -2.903704
  H       6.516218      3.548964     -2.171301
  S       5.675975      7.270804     -6.961051
  H       4.329749      7.194788     -6.953368
  H       5.712633      7.128783     -5.614102
21
Coordinates from ORCA-job neb_24_139_CI_MEP.QMRegion E -1845.689355580565
  H       3.363830      3.494410     -3.535796
  O       3.169214      4.453265     -3.439172
  H       2.189644      4.445102     -3.489130
  H       3.380500      2.863036     -6.651042
  O       4.236362      2.664625     -6.230616
  H       4.005145      2.349081     -5.331722
  H       3.723342      7.094028     -1.140032
  O       3.915496      8.046781     -1.309364
  H       4.308798      8.013603     -2.190982
  H       4.299100      6.088621     -3.805211
  O       4.999327      6.744378     -3.651016
  H       5.691905      6.214878     -3.229521
  H       6.892463      3.343026     -4.527123
  O       6.926843      2.700252     -5.256105
  H       6.117951      2.871716     -5.764408
  H       5.318732      4.028239     -2.960360
  O       6.269470      4.168582     -2.887329
  H       6.513409      3.562746     -2.158714
  S       5.667624      7.417309     -6.955447
  H       4.350992      7.701892     -6.893906
  H       5.696612      7.132143     -5.630748
21
Coordinates from ORCA-job neb_24_139_CI_MEP.QMRegion E -1845.689368881854
  H       3.365032      3.493145     -3.538930
  O       3.172451      4.452648     -3.442486
  H       2.192960      4.446618     -3.493065
  H       3.385552      2.867219     -6.653846
  O       4.239489      2.663724     -6.232012
  H       4.005215      2.348682     -5.333736
  H       3.724290      7.092667     -1.146240
  O       3.914837      8.046567     -1.311393
  H       4.306466      8.019920     -2.193909
  H       4.298560      6.101949     -3.813029
  O       4.995676      6.762181     -3.664965
  H       5.693330      6.241136     -3.241730
  H       6.886775      3.347776     -4.517686
  O       6.923460      2.708130     -5.249501
  H       6.112800      2.877400     -5.755974
  H       5.317913      4.051573     -2.946887
  O       6.270448      4.182510     -2.878751
  H       6.513305      3.571704     -2.154045
  S       5.636024      7.570062     -6.949960
  H       4.447690      8.183567     -6.761387
  H       5.660417      7.153694     -5.660220
21
Coordinates from ORCA-job neb_24_139_CI_MEP.QMRegion E -1845.689422941447
  H       3.362883      3.509210     -3.535667
  O       3.172169      4.468988     -3.443350
  H       2.192797      4.467018     -3.493546
  H       3.387556      2.889189     -6.655065
  O       4.241423      2.683343     -6.234041
  H       4.006154      2.372945     -5.334687
  H       3.724892      7.110111     -1.149498
  O       3.913022      8.064175     -1.312662
  H       4.296864      8.044488     -2.198733
  H       4.281312      6.122672     -3.817851
  O       4.973670      6.791236     -3.685679
  H       5.686204      6.282357     -3.273524
  H       6.891953      3.364889     -4.523719
  O       6.927176      2.723351     -5.254105
  H       6.117241      2.894346     -5.760995
  H       5.327246      4.080857     -2.957932
  O       6.280711      4.204103     -2.889172
  H       6.519171      3.592844     -2.164064
  S       5.581868      7.825861     -6.900606
  H       4.618469      8.677691     -6.493945
  H       5.589866      7.228702     -5.684845
21
Coordinates from ORCA-job neb_24_139_CI_MEP.QMRegion E -1845.689450166984
  H       3.364706      3.484698     -3.535243
  O       3.170613      4.444629     -3.442495
  H       2.191482      4.438781     -3.502208
  H       3.372869      2.860219     -6.670074
  O       4.231616      2.672034     -6.249000
  H       4.002382      2.361025     -5.348508
  H       3.727316      7.075784     -1.148809
  O       3.924291      8.027167     -1.325922
  H       4.292657      7.986473     -2.217584
  H       4.257372      6.041201     -3.873726
  O       4.928739      6.736827     -3.768274
  H       5.689489      6.250841     -3.421874
  H       6.896487      3.322116     -4.573565
  O       6.934904      2.678003     -5.302266
  H       6.123654      2.840285     -5.808903
  H       5.336238      4.021167     -3.017239
  O       6.291288      4.133579     -2.956776
  H       6.525988      3.539617     -2.215931
  S       5.421238      8.619352     -6.631054
  H       5.112202      9.630626     -5.793239
  H       5.291257      7.704201     -5.640150
