39
Coordinates from ORCA-job neb_4_271_CI_MEP.QMRegion E -2273.681897639303
  H       4.359555     -2.394862      5.535304
  O       4.037138     -2.882721      6.327092
  H       4.425633     -3.772348      6.209781
  H       1.587196      3.377658      6.868307
  O       1.019964      3.966222      6.344607
  H       0.225569      4.112595      6.910698
  H       4.948917     -2.145546      3.537445
  O       4.950964     -1.428464      4.209778
  H       4.118709     -0.901534      4.030484
  H       3.807690     -1.235089      7.217604
  O       3.875483     -0.264644      7.282715
  H       4.449685     -0.023370      6.546565
  H       6.615347      1.170543      4.735219
  O       6.222959      1.738948      5.427775
  H       6.347532      2.645406      5.048274
  H       7.565991     -0.543426      3.066307
  O       6.871850      0.099083      3.262826
  H       6.139431     -0.485808      3.594565
  H       1.851198      2.161901      8.541595
  O       2.571536      2.138033      7.892923
  H       2.803955      1.192735      7.809377
  H       4.480771      2.024981      5.194883
  O       3.530804      2.228034      5.061981
  H       3.113661      2.183428      5.932227
  H       4.270256      4.862145      6.093772
  O       4.235184      5.594833      5.468048
  H       3.615343      5.254546      4.771738
  H       5.437867      3.700150      3.407300
  O       6.142623      4.019077      4.003664
  H       5.722106      4.775462      4.445676
  H       7.257319     -2.310885      6.521490
  O       7.380362     -3.053377      5.904180
  H       6.601636     -3.615686      5.980786
  H       2.738680      6.640844      6.152246
  O       1.775237      6.683667      6.240937
  H       1.502058      5.748000      6.151948
  S       7.289710     -0.418063      7.977064
  H       5.974482     -0.452202      8.284458
  H       7.093177      0.586417      7.086663
39
Coordinates from ORCA-job neb_4_271_CI_MEP.QMRegion E -2273.676864244848
  H       4.360407     -2.410634      5.527541
  O       4.048563     -2.892726      6.326663
  H       4.428379     -3.785214      6.208512
  H       1.594119      3.358439      6.858970
  O       1.026462      3.956130      6.344768
  H       0.232472      4.098121      6.911402
  H       4.951791     -2.155860      3.529007
  O       4.957312     -1.438780      4.201723
  H       4.124101     -0.911484      4.027309
  H       3.818570     -1.235961      7.212703
  O       3.824371     -0.262337      7.217453
  H       4.459776     -0.029492      6.531858
  H       6.631768      1.188718      4.684907
  O       6.213571      1.779235      5.342235
  H       6.340371      2.679552      4.944974
  H       7.577815     -0.567794      3.040326
  O       6.888107      0.076850      3.244405
  H       6.154140     -0.503365      3.580077
  H       1.855291      2.148115      8.540283
  O       2.568126      2.120153      7.884109
  H       2.778915      1.171495      7.778587
  H       4.481257      2.025825      5.149825
  O       3.529049      2.233588      5.036546
  H       3.125167      2.178260      5.911893
  H       4.326394      4.917917      6.064630
  O       4.260585      5.630002      5.418147
  H       3.629873      5.259774      4.746077
  H       5.434247      3.718343      3.369318
  O       6.151127      4.047689      3.946059
  H       5.734949      4.803951      4.392894
  H       7.158536     -2.349898      6.527224
  O       7.351684     -3.074691      5.923658
  H       6.596043     -3.673583      5.968971
  H       2.747149      6.631783      6.125005
  O       1.785198      6.669172      6.232498
  H       1.512714      5.732877      6.146573
  S       7.128892      0.531673      8.369847
  H       5.795658      0.482308      8.572710
  H       6.965928      1.229307      7.217695
39
Coordinates from ORCA-job neb_4_271_CI_MEP.QMRegion E -2273.674397296003
  H       4.358555     -2.400589      5.521580
  O       4.053137     -2.881879      6.323636
  H       4.429395     -3.775299      6.204443
  H       1.594016      3.367947      6.855312
  O       1.026584      3.966535      6.341704
  H       0.233248      4.107684      6.909566
  H       4.952240     -2.144517      3.523166
  O       4.961657     -1.427914      4.195829
  H       4.126809     -0.899691      4.026405
  H       3.836803     -1.216118      7.208951
  O       3.833988     -0.243359      7.205975
  H       4.486008     -0.004658      6.538664
  H       6.644796      1.214032      4.662676
  O       6.211827      1.808832      5.305721
  H       6.336687      2.707737      4.902636
  H       7.583652     -0.562289      3.026496
  O       6.896842      0.083060      3.236913
  H       6.161371     -0.494496      3.573932
  H       1.850870      2.151028      8.533906
  O       2.557205      2.119391      7.870967
  H       2.757031      1.169433      7.756425
  H       4.481728      2.042493      5.127327
  O       3.526701      2.240625      5.021249
  H       3.131227      2.195555      5.900792
  H       4.355770      4.970966      6.050259
  O       4.268743      5.668784      5.390823
  H       3.634824      5.277963      4.733479
  H       5.431118      3.744866      3.351820
  O       6.152742      4.076732      3.921232
  H       5.740593      4.835492      4.367676
  H       7.102350     -2.366112      6.514560
  O       7.333967     -3.087928      5.923611
  H       6.588633     -3.700774      5.951826
  H       2.749453      6.647027      6.111665
  O       1.788506      6.678226      6.230555
  H       1.518216      5.741320      6.143807
  S       6.951080      1.267354      8.581191
  H       5.617131      1.079352      8.658413
  H       6.866895      1.594974      7.265782
39
Coordinates from ORCA-job neb_4_271_CI_MEP.QMRegion E -2273.673818930826
  H       4.351403     -2.387085      5.532158
  O       4.048194     -2.874571      6.331373
  H       4.423797     -3.766914      6.203331
  H       1.589826      3.367953      6.847200
  O       1.025606      3.974229      6.338948
  H       0.236668      4.120924      6.911553
  H       4.941548     -2.129804      3.528455
  O       4.956417     -1.417792      4.205063
  H       4.123459     -0.883255      4.038666
  H       3.850991     -1.183581      7.213312
  O       3.872236     -0.211815      7.223197
  H       4.527601      0.024697      6.558468
  H       6.649536      1.236309      4.654670
  O       6.212480      1.830954      5.294102
  H       6.336910      2.729870      4.890659
  H       7.574938     -0.563780      3.018738
  O       6.893892      0.086100      3.233771
  H       6.158036     -0.485506      3.579046
  H       1.844441      2.169752      8.522313
  O       2.553534      2.137645      7.862218
  H       2.761183      1.188839      7.755553
  H       4.488948      2.059560      5.115835
  O       3.530035      2.242335      5.015476
  H       3.145338      2.212599      5.900298
  H       4.365882      4.998852      6.030056
  O       4.266519      5.693483      5.368911
  H       3.633231      5.293055      4.716931
  H       5.422091      3.762045      3.336980
  O       6.152601      4.091295      3.896958
  H       5.754451      4.860354      4.337428
  H       7.024597     -2.391977      6.514298
  O       7.300114     -3.103727      5.931470
  H       6.567502     -3.733550      5.934599
  H       2.744597      6.666397      6.103241
  O       1.784347      6.689186      6.229600
  H       1.520283      5.750574      6.143418
  S       6.700794      2.003776      8.660551
  H       5.420424      1.579231      8.683381
  H       6.751489      1.924265      7.307241
39
Coordinates from ORCA-job neb_4_271_CI_MEP.QMRegion E -2273.674148503148
  H       4.356711     -2.374894      5.509103
  O       4.054480     -2.852660      6.314857
  H       4.428316     -3.746896      6.199482
  H       1.595610      3.390380      6.847770
  O       1.024925      3.985225      6.334427
  H       0.233630      4.125086      6.905443
  H       4.953051     -2.120966      3.514257
  O       4.967857     -1.405350      4.186923
  H       4.130952     -0.875291      4.024203
  H       3.892553     -1.169390      7.197320
  O       3.921598     -0.198475      7.239942
  H       4.559023      0.058433      6.565106
  H       6.668041      1.254275      4.647617
  O       6.221955      1.845325      5.283238
  H       6.334331      2.745181      4.877048
  H       7.589972     -0.541593      3.008366
  O       6.908069      0.104393      3.230121
  H       6.171644     -0.469861      3.569712
  H       1.837375      2.144506      8.518449
  O       2.540107      2.116234      7.851569
  H       2.746592      1.168406      7.734035
  H       4.485447      2.072267      5.099913
  O       3.526068      2.246787      4.997785
  H       3.142166      2.227961      5.882987
  H       4.416540      5.071386      6.028206
  O       4.281315      5.739546      5.345748
  H       3.645522      5.309042      4.716735
  H       5.427106      3.778444      3.331594
  O       6.153683      4.112199      3.893165
  H       5.750053      4.880618      4.330829
  H       7.004656     -2.384971      6.484298
  O       7.302076     -3.104772      5.922781
  H       6.576128     -3.742621      5.921162
  H       2.753126      6.674913      6.086859
  O       1.794057      6.696523      6.226066
  H       1.527313      5.759087      6.136220
  S       6.368076      2.735680      8.534272
  H       5.196479      2.072366      8.619911
  H       6.638019      2.194749      7.321544
39
Coordinates from ORCA-job neb_4_271_CI_MEP.QMRegion E -2273.676691611320
  H       4.354337     -2.359617      5.505494
  O       4.053272     -2.836940      6.312061
  H       4.427354     -3.730742      6.196037
  H       1.601165      3.405202      6.845970
  O       1.024477      3.991581      6.330721
  H       0.234942      4.132837      6.903890
  H       4.953916     -2.108762      3.509847
  O       4.971863     -1.395313      4.184418
  H       4.134517     -0.863675      4.026404
  H       3.924809     -1.134287      7.193667
  O       3.964913     -0.165185      7.257038
  H       4.606805      0.102525      6.590473
  H       6.672713      1.284389      4.663839
  O       6.229109      1.878194      5.298122
  H       6.329897      2.774088      4.879060
  H       7.589413     -0.525371      3.008157
  O       6.910481      0.121610      3.235912
  H       6.175002     -0.452669      3.577091
  H       1.835397      2.148599      8.514530
  O       2.554495      2.134218      7.864246
  H       2.778951      1.190277      7.744709
  H       4.487273      2.090753      5.091971
  O       3.525438      2.247726      4.987594
  H       3.146755      2.245723      5.874863
  H       4.454862      5.119809      6.017028
  O       4.285869      5.772695      5.325484
  H       3.651133      5.321649      4.710808
  H       5.423809      3.791806      3.321836
  O       6.152901      4.126931      3.879329
  H       5.755241      4.903973      4.307267
  H       6.949813     -2.393633      6.467771
  O       7.281541     -3.112294      5.924377
  H       6.566260     -3.762269      5.905458
  H       2.753753      6.689322      6.074473
  O       1.795651      6.705925      6.223817
  H       1.532291      5.768164      6.130846
  S       5.993648      3.352795      8.316840
  H       4.890873      2.593998      8.494722
  H       6.444746      2.560426      7.316617
39
Coordinates from ORCA-job neb_4_271_CI_MEP.QMRegion E -2273.681172373296
  H       4.365741     -2.361397      5.503633
  O       4.064517     -2.830090      6.315769
  H       4.434446     -3.726026      6.205618
  H       1.611881      3.390069      6.852632
  O       1.029858      3.969304      6.338042
  H       0.240915      4.110345      6.911641
  H       4.966268     -2.109058      3.512309
  O       4.979071     -1.396241      4.187463
  H       4.142180     -0.865656      4.026456
  H       3.980430     -1.103967      7.196413
  O       4.047459     -0.138921      7.291588
  H       4.703557      0.135902      6.641526
  H       6.696718      1.310951      4.746626
  O       6.234900      1.920704      5.349729
  H       6.331148      2.800007      4.891308
  H       7.605412     -0.505174      3.020567
  O       6.922535      0.136689      3.250971
  H       6.191699     -0.443124      3.589707
  H       1.867177      2.121150      8.546431
  O       2.584096      2.133521      7.893719
  H       2.883860      1.206230      7.798200
  H       4.500805      2.089260      5.091068
  O       3.538337      2.240701      4.979150
  H       3.155851      2.232122      5.863695
  H       4.505008      5.223922      5.992796
  O       4.304557      5.832988      5.259300
  H       3.668637      5.340218      4.683107
  H       5.436688      3.779544      3.320039
  O       6.160440      4.126223      3.877156
  H       5.752427      4.909031      4.288349
  H       6.889437     -2.442506      6.454584
  O       7.264890     -3.148540      5.923276
  H       6.574304     -3.824794      5.890223
  H       2.765575      6.674158      6.043093
  O       1.810430      6.689383      6.221580
  H       1.545350      5.753206      6.128276
  S       5.405974      4.108141      7.960403
  H       4.333929      3.310543      8.187688
  H       6.053039      3.138943      7.277384
