27
Coordinates from ORCA-job neb_132_164_CI_MEP.QMRegion E -1988.363000460914
  H      -0.404846      6.868967     -2.256511
  O      -1.150734      7.291215     -2.755481
  H      -1.928374      7.148884     -2.168260
  H      -0.699824      4.522545     -4.020660
  O      -1.481478      5.060457     -4.257383
  H      -1.361507      5.902831     -3.776691
  H      -0.654229      8.887108     -2.196977
  O      -0.505248      9.720538     -1.695096
  H       0.216385      9.501072     -1.076951
  H      -1.509240      5.898699     -7.283204
  O      -2.074945      5.310920     -6.769883
  H      -1.737774      5.318917     -5.822365
  H       0.724650      2.917742     -7.113987
  O       1.678998      2.683878     -7.205427
  H       1.697093      1.898759     -7.790204
  H      -2.057231     10.733435     -2.638046
  O      -3.007865     10.824638     -2.808052
  H      -3.104667     11.672442     -3.248496
  H      -1.492321      3.693152     -6.964865
  O      -0.932762      2.915153     -6.738554
  H      -1.202173      2.128023     -7.269179
  H      -4.350371      9.087289     -3.274310
  O      -4.936820      8.355528     -3.044901
  H      -4.448656      7.868153     -2.358437
  S       0.428122      5.885033     -9.032668
  H       1.189516      5.013449     -8.334805
  H      -0.261239      4.878541     -9.611338
27
Coordinates from ORCA-job neb_132_164_CI_MEP.QMRegion E -1988.362657329003
  H      -0.406410      6.858240     -2.251686
  O      -1.153368      7.278578     -2.751266
  H      -1.931221      7.137323     -2.163498
  H      -0.702548      4.497359     -4.001265
  O      -1.492504      5.031320     -4.221771
  H      -1.362759      5.876834     -3.749713
  H      -0.659855      8.863188     -2.186132
  O      -0.510749      9.703760     -1.695199
  H       0.210348      9.493205     -1.073242
  H      -1.622228      6.008634     -7.174277
  O      -2.100337      5.301364     -6.724558
  H      -1.777778      5.286303     -5.770088
  H       0.759423      2.940661     -7.127313
  O       1.705820      2.678746     -7.193935
  H       1.717280      1.899480     -7.785608
  H      -2.061894     10.649848     -2.676236
  O      -3.004763     10.737943     -2.886921
  H      -3.058897     11.487129     -3.484958
  H      -1.479992      3.689532     -6.976037
  O      -0.917068      2.920521     -6.738740
  H      -1.177283      2.129133     -7.268924
  H      -4.350460      9.041905     -3.248766
  O      -4.954813      8.324304     -3.018828
  H      -4.472872      7.826399     -2.334846
  S       0.331085      6.676228     -8.594155
  H       1.093136      5.830165     -7.868681
  H      -0.064619      5.681256     -9.417432
27
Coordinates from ORCA-job neb_132_164_CI_MEP.QMRegion E -1988.362578579288
  H      -0.405801      6.853364     -2.246005
  O      -1.152136      7.274552     -2.746428
  H      -1.931265      7.133860     -2.159814
  H      -0.696481      4.496340     -3.997242
  O      -1.487540      5.029577     -4.216221
  H      -1.358670      5.875081     -3.744244
  H      -0.660060      8.846594     -2.176598
  O      -0.510933      9.692906     -1.694408
  H       0.211859      9.490439     -1.071735
  H      -1.682015      6.081225     -7.120640
  O      -2.102333      5.310979     -6.717083
  H      -1.786963      5.282026     -5.760533
  H       0.789135      2.957389     -7.128835
  O       1.728618      2.674205     -7.184257
  H       1.731432      1.897008     -7.778263
  H      -2.042448     10.583976     -2.713247
  O      -2.976215     10.676918     -2.960338
  H      -2.987697     11.348977     -3.645915
  H      -1.455884      3.694420     -6.984476
  O      -0.899811      2.927337     -6.732379
  H      -1.156605      2.135631     -7.263860
  H      -4.333530      9.024218     -3.239494
  O      -4.953611      8.319366     -3.009306
  H      -4.482107      7.815813     -2.322123
  S       0.218971      7.245981     -8.160348
  H       0.994307      6.472136     -7.371289
  H       0.175425      6.302268     -9.126448
27
Coordinates from ORCA-job neb_132_164_CI_MEP.QMRegion E -1988.362613801099
  H      -0.402087      6.857392     -2.245126
  O      -1.145893      7.283862     -2.745228
  H      -1.927094      7.140853     -2.162159
  H      -0.693885      4.495940     -3.994204
  O      -1.484289      5.030519     -4.213418
  H      -1.356291      5.875658     -3.741586
  H      -0.652468      8.851912     -2.168031
  O      -0.504859      9.698731     -1.686166
  H       0.215638      9.496418     -1.060445
  H      -1.734989      6.116958     -7.088504
  O      -2.106845      5.305163     -6.718622
  H      -1.797068      5.270860     -5.761284
  H       0.804702      2.965370     -7.130522
  O       1.739935      2.669697     -7.180397
  H       1.737900      1.894812     -7.777330
  H      -2.016620     10.571655     -2.721488
  O      -2.934075     10.660011     -3.025543
  H      -2.880603     11.209479     -3.810664
  H      -1.444611      3.689799     -6.993333
  O      -0.890909      2.926026     -6.730812
  H      -1.144326      2.132009     -7.261257
  H      -4.317305      9.027805     -3.236200
  O      -4.943145      8.326299     -3.010230
  H      -4.476207      7.818677     -2.322964
  S       0.008272      7.679705     -7.703756
  H       0.776185      6.969713     -6.850723
  H       0.349070      6.894393     -8.745654
27
Coordinates from ORCA-job neb_132_164_CI_MEP.QMRegion E -1988.362665805161
  H      -0.412590      6.853860     -2.235844
  O      -1.155223      7.279743     -2.738255
  H      -1.938251      7.141407     -2.155034
  H      -0.711465      4.484397     -3.973316
  O      -1.505765      5.015774     -4.186638
  H      -1.379461      5.859549     -3.712265
  H      -0.660881      8.846193     -2.156891
  O      -0.510012      9.694036     -1.677971
  H       0.207307      9.490253     -1.048635
  H      -1.802201      6.151275     -7.032117
  O      -2.119679      5.302049     -6.697403
  H      -1.818489      5.256996     -5.738016
  H       0.787077      2.961462     -7.126833
  O       1.721878      2.664242     -7.174169
  H       1.719773      1.890091     -7.771987
  H      -2.046403     10.545978     -2.711229
  O      -2.952988     10.622843     -3.048934
  H      -2.860966     11.076296     -3.890135
  H      -1.466184      3.682095     -6.996072
  O      -0.912564      2.921486     -6.729172
  H      -1.162003      2.125328     -7.258152
  H      -4.363892      9.022149     -3.196752
  O      -4.989417      8.318189     -2.976947
  H      -4.518094      7.802759     -2.298733
  S      -0.297148      8.020240     -7.260656
  H       0.413121      7.383692     -6.305966
  H       0.396223      7.427343     -8.254415
27
Coordinates from ORCA-job neb_132_164_CI_MEP.QMRegion E -1988.362821944051
  H      -0.423294      6.856495     -2.218208
  O      -1.164336      7.285189     -2.720899
  H      -1.949616      7.148685     -2.138318
  H      -0.733175      4.481452     -3.951937
  O      -1.530125      5.011538     -4.158344
  H      -1.407444      5.849945     -3.674253
  H      -0.665752      8.852036     -2.128466
  O      -0.510512      9.699485     -1.650915
  H       0.200149      9.490479     -1.014880
  H      -1.844064      6.172982     -6.996945
  O      -2.126245      5.305706     -6.678922
  H      -1.835643      5.260326     -5.717070
  H       0.771757      2.968716     -7.107411
  O       1.705386      2.668364     -7.159150
  H       1.699433      1.897147     -7.759994
  H      -2.057482     10.546017     -2.692933
  O      -2.933765     10.594892     -3.106923
  H      -2.752776     10.865269     -4.010667
  H      -1.486333      3.678964     -6.983628
  O      -0.930046      2.921141     -6.717266
  H      -1.176799      2.122978     -7.243890
  H      -4.375089      9.036435     -3.170187
  O      -5.002017      8.329794     -2.961460
  H      -4.534386      7.809661     -2.284846
  S      -0.653084      8.275902     -6.819509
  H      -0.062149      7.679410     -5.763345
  H       0.378998      7.991990     -7.641293
27
Coordinates from ORCA-job neb_132_164_CI_MEP.QMRegion E -1988.369167373393
  H      -0.403652      6.813481     -2.242278
  O      -1.154107      7.230199     -2.747133
  H      -1.939227      7.113698     -2.159387
  H      -0.693531      4.441560     -4.031249
  O      -1.495663      4.967564     -4.233934
  H      -1.385227      5.783986     -3.717037
  H      -0.641690      8.823974     -2.135346
  O      -0.488474      9.667708     -1.659147
  H       0.229186      9.458172     -1.029536
  H      -1.836578      6.285646     -7.002666
  O      -2.102506      5.399963     -6.735619
  H      -1.787166      5.302026     -5.788060
  H       0.814882      2.967427     -7.167090
  O       1.739473      2.645769     -7.183289
  H       1.738172      1.870483     -7.780788
  H      -2.021889     10.483438     -2.840141
  O      -2.801427     10.422429     -3.411809
  H      -2.421872     10.244445     -4.283503
  H      -1.451920      3.693604     -7.068259
  O      -0.918159      2.940988     -6.758797
  H      -1.156222      2.137969     -7.283542
  H      -4.271667      9.021953     -3.271226
  O      -4.909022      8.325719     -3.049602
  H      -4.461332      7.819794     -2.350738
  S      -1.277770      8.681417     -5.907285
  H      -1.131102      8.016778     -4.738698
  H       0.023222      9.030375     -5.948784
