24
Coordinates from ORCA-job neb_2_164_CI_MEP.QMRegion E -1917.018881976340
  H      -0.389881      6.829010     -2.313075
  O      -1.131205      7.261907     -2.808314
  H      -1.906957      7.130684     -2.215252
  H      -0.650478      4.490003     -4.097517
  O      -1.431936      5.026744     -4.337863
  H      -1.316029      5.863946     -3.848773
  H      -0.566049      8.854076     -2.158850
  O      -0.383865      9.610567     -1.557527
  H       0.356294      9.298841     -0.991623
  H      -1.828317      9.567772     -0.741820
  O      -2.733952      9.454700     -0.359616
  H      -3.291809     10.017144     -0.906088
  H      -1.658534      6.036146     -7.281690
  O      -2.091124      5.307681     -6.835432
  H      -1.728018      5.281998     -5.899754
  H      -2.189255     11.028500     -3.251297
  O      -3.112555     10.779804     -3.067210
  H      -3.606507     11.556165     -3.349410
  H      -4.226160      8.929307     -3.435557
  O      -4.840233      8.245795     -3.141312
  H      -4.360910      7.789423     -2.424234
  S      -0.028055     12.256452     -3.342616
  H       0.694468     11.634230     -4.295521
  H       0.125489     11.218292     -2.474579
24
Coordinates from ORCA-job neb_2_164_CI_MEP.QMRegion E -1917.018386427026
  H      -0.375514      6.915178     -2.270498
  O      -1.110619      7.364585     -2.762240
  H      -1.894708      7.209133     -2.187058
  H      -0.651127      4.528070     -4.005046
  O      -1.437033      5.067602     -4.226994
  H      -1.300978      5.915269     -3.763134
  H      -0.570521      8.959787     -2.103029
  O      -0.382239      9.752963     -1.552965
  H       0.350559      9.450678     -0.976245
  H      -1.841420      9.667407     -0.708983
  O      -2.727619      9.476177     -0.314176
  H      -3.340391     10.084426     -0.735652
  H      -1.694454      6.092852     -7.146540
  O      -2.087748      5.321637     -6.737486
  H      -1.744691      5.288475     -5.794626
  H      -2.176581     10.722898     -3.193813
  O      -3.138227     10.714657     -3.065798
  H      -3.428037     11.427410     -3.643685
  H      -4.315940      8.989039     -3.296120
  O      -4.906944      8.261577     -3.059827
  H      -4.415126      7.785913     -2.364073
  S      -0.041345     11.497215     -4.417669
  H       0.155291     10.279963     -4.961321
  H       0.370560     11.067013     -3.205246
24
Coordinates from ORCA-job neb_2_164_CI_MEP.QMRegion E -1917.017487433780
  H      -0.383068      6.893466     -2.274518
  O      -1.120827      7.336011     -2.770320
  H      -1.904731      7.186484     -2.191901
  H      -0.661080      4.513903     -4.019745
  O      -1.447782      5.051036     -4.244623
  H      -1.317151      5.895875     -3.774212
  H      -0.592487      8.918961     -2.124547
  O      -0.416831      9.733723     -1.601962
  H       0.322917      9.465222     -1.019848
  H      -1.863665      9.670694     -0.726633
  O      -2.740094      9.476350     -0.311845
  H      -3.370668     10.087597     -0.700600
  H      -1.706858      6.087878     -7.164884
  O      -2.098059      5.317582     -6.752445
  H      -1.752419      5.283737     -5.810494
  H      -2.161580     10.570550     -3.087997
  O      -3.124868     10.664717     -3.103814
  H      -3.253142     11.291271     -3.823558
  H      -4.342054      8.989301     -3.288343
  O      -4.931219      8.260255     -3.050289
  H      -4.434330      7.783361     -2.359662
  S      -0.122513     11.079765     -4.839140
  H      -0.117965      9.742791     -5.011080
  H       0.446648     10.962449     -3.623133
24
Coordinates from ORCA-job neb_2_164_CI_MEP.QMRegion E -1917.017233294022
  H      -0.393229      6.846920     -2.292324
  O      -1.135285      7.278064     -2.792815
  H      -1.917245      7.140262     -2.207337
  H      -0.672755      4.479001     -4.053386
  O      -1.461292      5.011931     -4.282309
  H      -1.338408      5.852209     -3.801933
  H      -0.616651      8.853964     -2.156635
  O      -0.452816      9.681922     -1.650698
  H       0.295080      9.442724     -1.067139
  H      -1.885133      9.645374     -0.753542
  O      -2.754946      9.462063     -0.319471
  H      -3.397331     10.068041     -0.695928
  H      -1.712690      6.057764     -7.206398
  O      -2.111734      5.296680     -6.785112
  H      -1.760921      5.260996     -5.844634
  H      -2.157218     10.480872     -3.009590
  O      -3.100588     10.609429     -3.177227
  H      -3.091099     11.110176     -4.000206
  H      -4.342395      8.960700     -3.305226
  O      -4.938351      8.239751     -3.058752
  H      -4.444283      7.761869     -2.367181
  S      -0.226857     10.700002     -5.167896
  H      -0.333355      9.364997     -5.010751
  H       0.467124     10.820181     -4.019453
24
Coordinates from ORCA-job neb_2_164_CI_MEP.QMRegion E -1917.017298955747
  H      -0.399170      6.823477     -2.293843
  O      -1.142874      7.249583     -2.797042
  H      -1.924327      7.121196     -2.207852
  H      -0.681195      4.458391     -4.057306
  O      -1.474794      4.985218     -4.283640
  H      -1.358286      5.822501     -3.797104
  H      -0.630451      8.821062     -2.146872
  O      -0.476744      9.649097     -1.638578
  H       0.280301      9.424009     -1.060920
  H      -1.892989      9.633179     -0.744794
  O      -2.763619      9.457929     -0.306416
  H      -3.408668     10.070038     -0.666872
  H      -1.703746      6.053546     -7.201205
  O      -2.113526      5.295204     -6.784875
  H      -1.766660      5.250274     -5.843416
  H      -2.145526     10.478665     -2.922119
  O      -3.053462     10.571228     -3.239994
  H      -2.918517     10.896044     -4.137729
  H      -4.324062      8.944002     -3.302117
  O      -4.932470      8.233935     -3.053643
  H      -4.445812      7.753344     -2.358726
  S      -0.396146     10.239936     -5.456577
  H      -0.537873      9.005782     -4.932952
  H       0.485753     10.595150     -4.502272
24
Coordinates from ORCA-job neb_2_164_CI_MEP.QMRegion E -1917.018252428996
  H      -0.402452      6.791276     -2.302044
  O      -1.149503      7.209917     -2.808005
  H      -1.930837      7.091282     -2.215305
  H      -0.689687      4.424712     -4.057197
  O      -1.489836      4.944642     -4.278077
  H      -1.373529      5.781916     -3.792656
  H      -0.638089      8.776636     -2.151903
  O      -0.491304      9.606503     -1.645639
  H       0.271305      9.393377     -1.070176
  H      -1.898400      9.606851     -0.752368
  O      -2.767072      9.441578     -0.305107
  H      -3.415269     10.057416     -0.652087
  H      -1.686578      6.033219     -7.185501
  O      -2.112690      5.279143     -6.777809
  H      -1.771363      5.220181     -5.834720
  H      -2.139767     10.402937     -2.879786
  O      -2.998253     10.497251     -3.313157
  H      -2.742140     10.657170     -4.230810
  H      -4.319994      8.917096     -3.296102
  O      -4.936720      8.213180     -3.049296
  H      -4.457360      7.727221     -2.353135
  S      -0.584634      9.715985     -5.657546
  H      -0.708443      8.674166     -4.809867
  H       0.417466     10.254592     -4.935642
24
Coordinates from ORCA-job neb_2_164_CI_MEP.QMRegion E -1917.021629706324
  H      -0.385299      6.839722     -2.265245
  O      -1.131817      7.273569     -2.761311
  H      -1.920085      7.140338     -2.180987
  H      -0.674553      4.447523     -4.019526
  O      -1.478560      4.969039     -4.222232
  H      -1.358266      5.797569     -3.727971
  H      -0.613451      8.870933     -2.103538
  O      -0.462386      9.692292     -1.587819
  H       0.304849      9.464754     -1.023638
  H      -1.862666      9.655817     -0.712317
  O      -2.733280      9.449799     -0.282152
  H      -3.372760     10.123460     -0.517500
  H      -1.748137      6.165667     -7.073219
  O      -2.103574      5.336067     -6.746406
  H      -1.774358      5.257568     -5.807105
  H      -2.057176     10.480406     -2.937313
  O      -2.827163     10.399413     -3.514326
  H      -2.431679     10.191103     -4.374804
  H      -4.289972      8.954472     -3.318850
  O      -4.919161      8.264280     -3.062986
  H      -4.445760      7.778680     -2.363950
  S      -1.164358      8.698353     -5.911760
  H      -1.037167      8.041582     -4.736679
  H       0.085682      9.195916     -5.851094
