24
Coordinates from ORCA-job neb_130_345_CI_MEP.QMRegion E -1917.029156602764
  H      -2.371629     -3.618406      1.967090
  O      -2.409611     -4.537155      2.313805
  H      -1.467383     -4.784765      2.464391
  H      -4.635868     -5.158853     -1.610695
  O      -5.348027     -4.796608     -1.050262
  H      -5.115529     -5.118992     -0.158999
  H      -2.155774     -8.116914      0.517630
  O      -1.766334     -7.623758      1.275846
  H      -2.501067     -7.345488      1.825301
  H      -5.397180     -5.111132      1.828245
  O      -4.720773     -5.739063      1.478826
  H      -3.859168     -5.330761      1.720841
  H      -5.960112     -8.002761     -0.604740
  O      -5.118894     -8.072339     -0.087711
  H      -5.102340     -7.299731      0.504180
  H      -2.915140     -9.793306     -0.808033
  O      -2.733787     -8.859367     -0.997601
  H      -3.627876     -8.450386     -0.890856
  H      -8.146392     -8.364227     -1.072933
  O      -7.388659     -7.990507     -1.531215
  H      -7.627649     -7.028665     -1.630880
  S      -4.446978    -11.313853      0.484805
  H      -5.295725    -11.670321     -0.499555
  H      -4.981276    -10.066374      0.571877
24
Coordinates from ORCA-job neb_130_345_CI_MEP.QMRegion E -1917.027447439228
  H      -2.370996     -3.625322      1.965843
  O      -2.412945     -4.545018      2.308941
  H      -1.471490     -4.795286      2.460575
  H      -4.641321     -5.160539     -1.626361
  O      -5.352160     -4.788683     -1.069183
  H      -5.119446     -5.099972     -0.175132
  H      -2.152204     -8.156255      0.504385
  O      -1.772302     -7.648176      1.256547
  H      -2.512744     -7.380759      1.803939
  H      -5.400223     -5.120230      1.810987
  O      -4.719180     -5.738420      1.454231
  H      -3.860197     -5.314263      1.678897
  H      -5.923150     -7.986576     -0.672928
  O      -5.076114     -8.009621     -0.159316
  H      -5.064377     -7.208103      0.393631
  H      -2.904466     -9.855125     -0.771865
  O      -2.740012     -8.931480     -0.997650
  H      -3.634239     -8.515394     -0.893856
  H      -8.089745     -8.413462     -1.187100
  O      -7.335832     -7.990481     -1.607874
  H      -7.605494     -7.034015     -1.672019
  S      -4.376861    -10.854413      1.372337
  H      -5.494276    -11.447631      0.912474
  H      -4.830294     -9.621451      1.011145
24
Coordinates from ORCA-job neb_130_345_CI_MEP.QMRegion E -1917.025984024016
  H      -2.369442     -3.618600      1.973645
  O      -2.411070     -4.538891      2.315462
  H      -1.470011     -4.790042      2.467057
  H      -4.636146     -5.154531     -1.614885
  O      -5.350801     -4.786411     -1.060987
  H      -5.116790     -5.089633     -0.163829
  H      -2.140078     -8.164910      0.537706
  O      -1.759698     -7.639521      1.274633
  H      -2.488522     -7.420341      1.857801
  H      -5.397281     -5.115904      1.819478
  O      -4.714179     -5.733738      1.465802
  H      -3.855609     -5.311943      1.696753
  H      -5.886866     -7.977696     -0.671841
  O      -5.037190     -7.994139     -0.161924
  H      -5.026516     -7.188110      0.385751
  H      -2.875242     -9.870773     -0.825398
  O      -2.720126     -8.935880     -0.995512
  H      -3.616532     -8.523984     -0.877480
  H      -8.057978     -8.414571     -1.184553
  O      -7.305089     -7.981297     -1.595532
  H      -7.586532     -7.028251     -1.662495
  S      -4.443015    -10.558800      1.860275
  H      -5.687289    -11.059826      1.776065
  H      -4.820031     -9.426478      1.205387
24
Coordinates from ORCA-job neb_130_345_CI_MEP.QMRegion E -1917.025743468474
  H      -2.375265     -3.618369      1.977133
  O      -2.417691     -4.538148      2.319752
  H      -1.477268     -4.791040      2.469017
  H      -4.634464     -5.154080     -1.604869
  O      -5.350919     -4.788490     -1.051846
  H      -5.119890     -5.095112     -0.154583
  H      -2.132898     -8.178038      0.570604
  O      -1.758731     -7.636292      1.295502
  H      -2.465435     -7.518028      1.933789
  H      -5.401617     -5.119333      1.825263
  O      -4.724409     -5.743893      1.472619
  H      -3.861516     -5.333103      1.706819
  H      -5.873752     -7.968278     -0.680409
  O      -5.023916     -7.999690     -0.169750
  H      -5.008480     -7.205620      0.396770
  H      -2.862258     -9.880087     -0.889570
  O      -2.708843     -8.936998     -0.998548
  H      -3.606852     -8.527544     -0.872979
  H      -8.034219     -8.412369     -1.172946
  O      -7.289018     -7.972952     -1.591260
  H      -7.578513     -7.021866     -1.657177
  S      -4.499946    -10.306598      2.128134
  H      -5.750038    -10.486425      2.594085
  H      -4.904209     -9.383258      1.208183
24
Coordinates from ORCA-job neb_130_345_CI_MEP.QMRegion E -1917.026010144731
  H      -2.384600     -3.624684      1.976873
  O      -2.429309     -4.543748      2.320121
  H      -1.490060     -4.798889      2.468454
  H      -4.634331     -5.153951     -1.603588
  O      -5.351773     -4.793398     -1.048913
  H      -5.123732     -5.110355     -0.153587
  H      -2.108066     -8.193297      0.560142
  O      -1.763058     -7.654389      1.300428
  H      -2.446254     -7.684379      1.975325
  H      -5.409824     -5.133360      1.816493
  O      -4.744149     -5.769126      1.462931
  H      -3.875478     -5.376047      1.704169
  H      -5.867966     -8.006515     -0.716425
  O      -5.018125     -8.055395     -0.206110
  H      -5.000464     -7.272278      0.374846
  H      -2.822469     -9.889406     -0.941981
  O      -2.686978     -8.941051     -1.017643
  H      -3.593545     -8.547098     -0.889285
  H      -8.037421     -8.406557     -1.167710
  O      -7.296338     -7.975632     -1.602025
  H      -7.577774     -7.021480     -1.662852
  S      -4.406635     -9.986768      2.401200
  H      -5.554785     -9.593916      2.984433
  H      -4.764520     -9.417981      1.216429
24
Coordinates from ORCA-job neb_130_345_CI_MEP.QMRegion E -1917.027392699507
  H      -2.379424     -3.615918      1.980774
  O      -2.428243     -4.535173      2.322983
  H      -1.490829     -4.799017      2.466332
  H      -4.631983     -5.149530     -1.600989
  O      -5.350095     -4.789961     -1.046475
  H      -5.118384     -5.102255     -0.150556
  H      -2.089845     -8.141889      0.542771
  O      -1.755470     -7.629237      1.306446
  H      -2.422085     -7.757224      1.991452
  H      -5.395653     -5.112574      1.818352
  O      -4.733513     -5.756267      1.472163
  H      -3.860195     -5.370154      1.712599
  H      -5.848897     -7.984495     -0.695137
  O      -5.003741     -8.042524     -0.179470
  H      -4.974437     -7.249273      0.387668
  H      -2.807026     -9.840879     -0.922206
  O      -2.681977     -8.893008     -1.015862
  H      -3.592162     -8.505828     -0.873969
  H      -8.014636     -8.387668     -1.119939
  O      -7.283630     -7.967979     -1.581472
  H      -7.567836     -7.015737     -1.655313
  S      -4.301305     -9.505551      2.733367
  H      -5.244908     -8.627620      3.123364
  H      -4.675117     -9.353660      1.436819
24
Coordinates from ORCA-job neb_130_345_CI_MEP.QMRegion E -1917.030129554014
  H      -2.388043     -3.616327      1.970978
  O      -2.439538     -4.535974      2.312950
  H      -1.502674     -4.803276      2.454304
  H      -4.628541     -5.159423     -1.595906
  O      -5.347754     -4.802920     -1.039867
  H      -5.129656     -5.128745     -0.148127
  H      -2.058861     -8.197780      0.486840
  O      -1.711533     -7.671069      1.234151
  H      -2.339857     -7.818913      1.959366
  H      -5.417705     -5.084969      1.825903
  O      -4.756537     -5.753414      1.515823
  H      -3.878775     -5.356322      1.727426
  H      -5.848115     -8.074631     -0.629067
  O      -5.013920     -8.134086     -0.100537
  H      -4.964104     -7.299693      0.395635
  H      -2.821190     -9.920033     -0.976572
  O      -2.713521     -8.967719     -1.041076
  H      -3.622983     -8.598551     -0.853824
  H      -8.034062     -8.426160     -1.146288
  O      -7.282595     -7.993721     -1.560892
  H      -7.564868     -7.043196     -1.633023
  S      -4.134718     -8.547658      3.292923
  H      -4.629589     -7.317668      3.014608
  H      -4.680037     -9.034240      2.154997
