36
Coordinates from ORCA-job neb_7_169_CI_MEP.QMRegion E -2202.370394786557
  H      -1.623963     -0.848627     -4.594106
  O      -1.108126     -0.609082     -5.391901
  H      -0.373454     -0.072478     -5.061320
  H      -3.329995      1.551411     -4.093759
  O      -4.196407      1.098747     -3.913578
  H      -4.398005      1.228820     -2.944879
  H      -1.155816      1.565751     -3.891979
  O      -1.826943      2.164054     -4.280138
  H      -1.465001      2.529079     -5.116718
  H      -5.192178      5.747846     -5.534391
  O      -4.582678      4.981070     -5.607634
  H      -3.824610      5.253008     -6.155224
  H      -5.562161      3.497505     -5.561454
  O      -6.058676      2.762808     -5.146077
  H      -5.378571      2.267622     -4.643847
  H      -5.234323     -0.161941     -4.650763
  O      -5.829372     -0.876306     -4.948040
  H      -6.686466     -0.441535     -5.104769
  H      -7.460690      1.612456     -5.221610
  O      -8.012540      0.844039     -4.978201
  H      -8.925162      1.220827     -4.874970
  H      -1.752047      6.267040     -6.956427
  O      -2.099364      5.411050     -6.690190
  H      -1.835184      5.310159     -5.725984
  H      -4.099229     -3.146412     -4.862543
  O      -4.224935     -3.047425     -5.838434
  H      -4.768256     -2.249359     -5.907775
  H      -1.331878      3.729104     -7.060308
  O      -0.857972      2.951152     -6.722858
  H      -1.056637      2.171200     -7.296393
  H      -0.110176      0.367376     -8.229903
  O      -1.029053      0.577652     -7.976620
  H      -1.188140      0.065424     -7.163173
  S      -4.014119      2.279064     -8.768104
  H      -4.601641      1.671728     -7.714483
  H      -3.020491      1.364183     -8.808602
36
Coordinates from ORCA-job neb_7_169_CI_MEP.QMRegion E -2202.369470304218
  H      -1.632022     -0.853878     -4.595482
  O      -1.113216     -0.612436     -5.391245
  H      -0.376270     -0.082221     -5.056252
  H      -3.325065      1.552544     -4.092014
  O      -4.191765      1.102865     -3.911255
  H      -4.393338      1.231202     -2.942049
  H      -1.152729      1.561861     -3.892425
  O      -1.818134      2.165689     -4.283147
  H      -1.454837      2.517424     -5.123746
  H      -5.181399      5.765097     -5.529046
  O      -4.560873      5.006670     -5.608623
  H      -3.798531      5.298416     -6.138860
  H      -5.543786      3.514556     -5.548371
  O      -6.045076      2.779943     -5.141817
  H      -5.375608      2.280109     -4.630148
  H      -5.252180     -0.149535     -4.656781
  O      -5.836649     -0.875170     -4.944465
  H      -6.693550     -0.448762     -5.121778
  H      -7.458416      1.616537     -5.234575
  O      -8.010619      0.854713     -4.975849
  H      -8.922400      1.234285     -4.874241
  H      -1.707257      6.261567     -6.954575
  O      -2.069078      5.409541     -6.694405
  H      -1.812569      5.301538     -5.727590
  H      -4.107885     -3.140538     -4.866164
  O      -4.229643     -3.044527     -5.842229
  H      -4.772530     -2.246392     -5.917520
  H      -1.308508      3.728475     -7.087535
  O      -0.869763      2.931807     -6.747563
  H      -1.059324      2.155707     -7.333507
  H      -0.129474      0.359120     -8.237085
  O      -1.047777      0.567339     -7.980700
  H      -1.194494      0.062457     -7.159820
  S      -4.400563      1.622319     -8.881516
  H      -4.326751      1.779472     -7.543244
  H      -3.298601      0.841722     -8.899105
36
Coordinates from ORCA-job neb_7_169_CI_MEP.QMRegion E -2202.369569615764
  H      -1.644372     -0.847924     -4.612280
  O      -1.126082     -0.606096     -5.408271
  H      -0.388822     -0.077261     -5.072164
  H      -3.347114      1.549359     -4.102692
  O      -4.208479      1.095377     -3.919702
  H      -4.407171      1.225665     -2.951485
  H      -1.162094      1.558564     -3.884463
  O      -1.825174      2.163404     -4.277159
  H      -1.455880      2.519875     -5.111080
  H      -5.192627      5.758583     -5.526570
  O      -4.567440      5.004219     -5.614961
  H      -3.806438      5.311984     -6.135806
  H      -5.577679      3.491472     -5.563995
  O      -6.081969      2.777006     -5.131040
  H      -5.405878      2.264378     -4.639812
  H      -5.260210     -0.165380     -4.694570
  O      -5.848593     -0.901061     -4.946787
  H      -6.703522     -0.477721     -5.139767
  H      -7.470891      1.590086     -5.244429
  O      -8.024563      0.833129     -4.975472
  H      -8.932110      1.219091     -4.872967
  H      -1.694384      6.257946     -6.950621
  O      -2.064248      5.408205     -6.694214
  H      -1.815455      5.298416     -5.724125
  H      -4.111465     -3.138328     -4.870367
  O      -4.229661     -3.046781     -5.846914
  H      -4.768292     -2.245348     -5.927733
  H      -1.288370      3.747100     -7.072836
  O      -0.864123      2.941105     -6.735954
  H      -1.047520      2.165391     -7.327391
  H      -0.142947      0.380499     -8.234466
  O      -1.062482      0.604828     -7.997263
  H      -1.239881      0.088876     -7.188997
  S      -4.656885      1.201054     -8.377363
  H      -3.822185      2.045768     -7.737361
  H      -3.618263      0.560726     -8.955268
36
Coordinates from ORCA-job neb_7_169_CI_MEP.QMRegion E -2202.368939426984
  H      -1.643073     -0.851137     -4.606294
  O      -1.121415     -0.612207     -5.401288
  H      -0.384616     -0.083532     -5.064036
  H      -3.350814      1.541421     -4.107399
  O      -4.209335      1.083220     -3.919673
  H      -4.406003      1.218109     -2.951371
  H      -1.164735      1.555341     -3.880754
  O      -1.829034      2.159475     -4.273077
  H      -1.457052      2.519790     -5.104532
  H      -5.190978      5.747493     -5.525853
  O      -4.566446      4.993127     -5.613402
  H      -3.805112      5.302752     -6.132040
  H      -5.590260      3.464131     -5.569334
  O      -6.094434      2.766115     -5.112899
  H      -5.413197      2.248978     -4.634505
  H      -5.256736     -0.173245     -4.704702
  O      -5.848954     -0.907384     -4.951046
  H      -6.704618     -0.483444     -5.136492
  H      -7.468822      1.577609     -5.240981
  O      -8.026510      0.821276     -4.974823
  H      -8.932684      1.210725     -4.872298
  H      -1.684695      6.256312     -6.947046
  O      -2.057222      5.406780     -6.693691
  H      -1.812551      5.296267     -5.722290
  H      -4.106701     -3.146644     -4.866747
  O      -4.231904     -3.047713     -5.842273
  H      -4.778786     -2.250185     -5.908431
  H      -1.279141      3.749197     -7.059159
  O      -0.854171      2.944034     -6.720884
  H      -1.037357      2.165071     -7.308877
  H      -0.141074      0.385402     -8.222572
  O      -1.059182      0.611218     -7.981922
  H      -1.235013      0.095854     -7.172847
  S      -4.701342      1.262854     -8.215943
  H      -3.577412      1.991483     -8.061272
  H      -4.020038      0.281289     -8.843774
36
Coordinates from ORCA-job neb_7_169_CI_MEP.QMRegion E -2202.368924391516
  H      -1.642209     -0.848389     -4.608158
  O      -1.122198     -0.611240     -5.404561
  H      -0.385816     -0.080317     -5.069632
  H      -3.356932      1.537757     -4.115866
  O      -4.213552      1.078097     -3.920873
  H      -4.405778      1.217263     -2.952498
  H      -1.168893      1.555475     -3.880032
  O      -1.835155      2.157963     -4.270897
  H      -1.463077      2.523341     -5.100263
  H      -5.191999      5.739883     -5.525904
  O      -4.567976      4.985596     -5.613091
  H      -3.808031      5.297503     -6.131657
  H      -5.610622      3.435759     -5.588527
  O      -6.110483      2.757075     -5.101200
  H      -5.420490      2.241837     -4.633516
  H      -5.258710     -0.169594     -4.698751
  O      -5.852109     -0.899953     -4.956937
  H      -6.711771     -0.474771     -5.123862
  H      -7.468787      1.578014     -5.231216
  O      -8.028640      0.818401     -4.974823
  H      -8.935030      1.207294     -4.871830
  H      -1.677830      6.261562     -6.944938
  O      -2.054568      5.413272     -6.693243
  H      -1.813462      5.301581     -5.721441
  H      -4.104810     -3.147895     -4.864543
  O      -4.235969     -3.044031     -5.839171
  H      -4.790604     -2.251046     -5.895082
  H      -1.276849      3.758530     -7.041723
  O      -0.845595      2.954638     -6.707996
  H      -1.038221      2.176865     -7.292853
  H      -0.134904      0.393887     -8.220216
  O      -1.053027      0.624992     -7.984698
  H      -1.240241      0.107402     -7.179914
  S      -4.596680      1.396490     -8.128342
  H      -3.372559      1.855258     -8.454938
  H      -4.295462      0.163709     -8.590364
36
Coordinates from ORCA-job neb_7_169_CI_MEP.QMRegion E -2202.369575701492
  H      -1.639003     -0.840246     -4.605071
  O      -1.118356     -0.605687     -5.401683
  H      -0.383729     -0.071536     -5.067319
  H      -3.353016      1.546123     -4.113158
  O      -4.209667      1.086284     -3.915701
  H      -4.400671      1.224996     -2.946851
  H      -1.165414      1.563344     -3.879271
  O      -1.834909      2.163441     -4.267571
  H      -1.464374      2.541852     -5.092070
  H      -5.188162      5.747648     -5.519001
  O      -4.563391      4.994102     -5.605473
  H      -3.805891      5.306305     -6.127038
  H      -5.604952      3.435955     -5.598171
  O      -6.104199      2.762044     -5.102871
  H      -5.412063      2.254398     -4.630405
  H      -5.257180     -0.151212     -4.671418
  O      -5.849602     -0.876017     -4.950310
  H      -6.711230     -0.448389     -5.104454
  H      -7.463183      1.599523     -5.217027
  O      -8.022768      0.835168     -4.972005
  H      -8.931587      1.219552     -4.868168
  H      -1.672422      6.291725     -6.931103
  O      -2.051046      5.441986     -6.688418
  H      -1.813480      5.321386     -5.717329
  H      -4.103426     -3.142986     -4.860044
  O      -4.240702     -3.033122     -5.833502
  H      -4.801199     -2.243708     -5.878827
  H      -1.274299      3.786747     -7.023395
  O      -0.838635      2.983303     -6.693741
  H      -1.045827      2.208376     -7.274392
  H      -0.128609      0.410487     -8.212162
  O      -1.044267      0.645823     -7.971359
  H      -1.231657      0.128001     -7.166723
  S      -4.468171      1.608497     -8.114553
  H      -3.224478      1.576230     -8.631254
  H      -4.551109      0.261187     -8.149178
36
Coordinates from ORCA-job neb_7_169_CI_MEP.QMRegion E -2202.370798611568
  H      -1.621281     -0.835583     -4.593510
  O      -1.097985     -0.602235     -5.388042
  H      -0.365308     -0.064909     -5.053673
  H      -3.344564      1.555823     -4.115092
  O      -4.204781      1.098518     -3.919489
  H      -4.398691      1.237326     -2.951412
  H      -1.161759      1.572641     -3.898231
  O      -1.834131      2.170650     -4.282577
  H      -1.476211      2.536290     -5.119477
  H      -5.196042      5.748320     -5.541136
  O      -4.579961      4.987593     -5.620025
  H      -3.825499      5.277898     -6.159274
  H      -5.598804      3.462234     -5.611663
  O      -6.095680      2.767629     -5.138260
  H      -5.402794      2.269303     -4.658370
  H      -5.232427     -0.145184     -4.648850
  O      -5.821387     -0.860928     -4.960452
  H      -6.683170     -0.431938     -5.111235
  H      -7.461289      1.601709     -5.234893
  O      -8.014643      0.835492     -4.982938
  H      -8.925745      1.214612     -4.881025
  H      -1.705201      6.271185     -6.962273
  O      -2.072481      5.421377     -6.702646
  H      -1.826367      5.314970     -5.733831
  H      -4.092955     -3.146071     -4.857485
  O      -4.227039     -3.040551     -5.832220
  H      -4.780054     -2.247790     -5.886927
  H      -1.297186      3.761772     -7.052086
  O      -0.844370      2.967770     -6.723276
  H      -1.051507      2.190998     -7.299523
  H      -0.096480      0.381808     -8.223812
  O      -1.012612      0.600766     -7.967439
  H      -1.167483      0.100164     -7.145335
  S      -4.360406      1.506216     -7.998086
  H      -3.240799      0.929726     -8.485099
  H      -4.685581      0.401726     -7.290767
