15
Coordinates from ORCA-job neb_158_202_CI_MEP.QMRegion E -1703.014744951900
  H       9.311993      0.269090     -1.045893
  O       8.623006      0.544494     -0.433724
  H       8.310827     -0.291677     -0.051816
  H       7.927564     -3.045260      0.379061
  O       8.341859     -2.186998      0.616272
  H       8.305231     -2.204478      1.585359
  H       9.611229     -2.154181     -0.975280
  O       9.879427     -1.895690     -1.872412
  H       9.038396     -1.623160     -2.299702
  H       9.828587     -3.375574     -3.166593
  O       9.655840     -4.014378     -3.882145
  H       9.202129     -3.495436     -4.563981
  S      13.140201     -3.101597     -3.058235
  H      12.198144     -3.739248     -3.785086
  H      12.211969     -2.292902     -2.508634
15
Coordinates from ORCA-job neb_158_202_CI_MEP.QMRegion E -1703.013203010424
  H       9.313134      0.237180     -1.026047
  O       8.599464      0.488085     -0.430727
  H       8.307200     -0.357490     -0.055149
  H       7.918361     -3.074113      0.384455
  O       8.345389     -2.219616      0.618814
  H       8.311277     -2.233660      1.587386
  H       9.563716     -2.271221     -0.981741
  O       9.843854     -2.026331     -1.879519
  H       9.021472     -1.696506     -2.300012
  H       9.802074     -3.436588     -3.205747
  O       9.632567     -4.068453     -3.929466
  H       9.164917     -3.547975     -4.599237
  S      13.251027     -2.273950     -2.643402
  H      12.313586     -2.914592     -3.370712
  H      12.300969     -1.718885     -1.866274
15
Coordinates from ORCA-job neb_158_202_CI_MEP.QMRegion E -1703.012224301612
  H       9.326485      0.269718     -0.977846
  O       8.603198      0.506310     -0.391274
  H       8.309672     -0.347640     -0.032844
  H       7.909245     -3.074252      0.391704
  O       8.333529     -2.219147      0.628155
  H       8.300099     -2.235945      1.597308
  H       9.537477     -2.284833     -0.957985
  O       9.828381     -2.043471     -1.852648
  H       9.013292     -1.705501     -2.280630
  H       9.801294     -3.444031     -3.195934
  O       9.625699     -4.070232     -3.922093
  H       9.155614     -3.544741     -4.586917
  S      13.258689     -1.735822     -2.365627
  H      12.284559     -2.363741     -3.052481
  H      12.383627     -1.397799     -1.399200
15
Coordinates from ORCA-job neb_158_202_CI_MEP.QMRegion E -1703.011834150544
  H       9.351548      0.328167     -0.908833
  O       8.605969      0.542959     -0.342154
  H       8.313595     -0.320170     -0.006041
  H       7.904515     -3.057521      0.406933
  O       8.325718     -2.202177      0.645581
  H       8.293706     -2.221287      1.615118
  H       9.523149     -2.265776     -0.928700
  O       9.816144     -2.037221     -1.825924
  H       9.005931     -1.695014     -2.258948
  H       9.798393     -3.436254     -3.171610
  O       9.623500     -4.057429     -3.902140
  H       9.155029     -3.528352     -4.564968
  S      13.187529     -1.260533     -2.122783
  H      12.202374     -1.916898     -2.765315
  H      12.428429     -1.172402     -1.012608
15
Coordinates from ORCA-job neb_158_202_CI_MEP.QMRegion E -1703.012137516431
  H       9.378527      0.373449     -0.872194
  O       8.611067      0.556759     -0.324252
  H       8.329519     -0.317385     -0.008675
  H       7.901359     -3.050992      0.410526
  O       8.322973     -2.196396      0.650629
  H       8.287261     -2.215412      1.620241
  H       9.524680     -2.280495     -0.921342
  O       9.807411     -2.071080     -1.826453
  H       9.001084     -1.710647     -2.251604
  H       9.804522     -3.453157     -3.172888
  O       9.618356     -4.070438     -3.903990
  H       9.145154     -3.536609     -4.559280
  S      13.006828     -0.795395     -1.874115
  H      11.996085     -1.459159     -2.468945
  H      12.440572     -0.986319     -0.664929
15
Coordinates from ORCA-job neb_158_202_CI_MEP.QMRegion E -1703.013177806415
  H       9.453377      0.512751     -0.724409
  O       8.626498      0.624838     -0.248051
  H       8.375544     -0.269874      0.031207
  H       7.908858     -3.031585      0.410488
  O       8.326502     -2.177079      0.656457
  H       8.282867     -2.198777      1.626029
  H       9.527346     -2.247386     -0.896716
  O       9.799017     -2.091979     -1.816351
  H       9.006161     -1.697392     -2.236679
  H       9.776530     -3.441680     -3.145262
  O       9.607761     -4.052108     -3.887053
  H       9.143115     -3.515311     -4.545806
  S      12.656643     -0.260392     -1.552646
  H      11.742829     -1.080802     -2.114622
  H      12.408508     -0.781683     -0.333700
15
Coordinates from ORCA-job neb_158_202_CI_MEP.QMRegion E -1703.017221963495
  H       9.518548      0.669587     -0.431668
  O       8.581016      0.613151     -0.203688
  H       8.418398     -0.317441      0.007938
  H       7.980560     -3.077531      0.375584
  O       8.434429     -2.238349      0.613760
  H       8.361887     -2.233461      1.581014
  H       9.617621     -2.250925     -0.996152
  O       9.886748     -2.077039     -1.913327
  H       9.090700     -1.659432     -2.307935
  H       9.852027     -3.475945     -3.234898
  O       9.626805     -4.099018     -3.949392
  H       9.156575     -3.555292     -4.598803
  S      11.950439      0.377084     -0.978313
  H      11.330129     -0.676952     -1.574022
  H      12.219535     -0.341483      0.131898
