33
Coordinates from ORCA-job neb_36_318_CI_MEP.QMRegion E -2131.004566935032
  H       7.837679     -1.765561     -4.068917
  O       7.675285     -1.381859     -3.169696
  H       7.211499     -0.525015     -3.339218
  H       8.196823     -1.593181     -6.081168
  O       8.107412     -2.421808     -5.576212
  H       7.198530     -2.701536     -5.836771
  H       7.865462      0.780839     -7.152035
  O       7.436776     -0.066372     -6.950221
  H       6.478023      0.101573     -6.807345
  H       9.457450      0.191846     -0.870381
  O       8.697726      0.438703     -0.328372
  H       8.452143     -0.408711      0.083785
  H       6.098092      1.972776     -0.392777
  O       6.662991      2.172154     -1.157634
  H       7.475120      1.666200     -0.942791
  H       6.433231      1.497743     -4.244711
  O       6.252877      0.831161     -3.552607
  H       6.206286      1.318409     -2.704348
  H       9.562524     -2.191091     -0.865971
  O       9.906224     -1.963840     -1.743679
  H       9.110406     -1.635557     -2.224064
  H       9.986741     -3.416323     -2.995591
  O       9.839971     -4.091824     -3.686964
  H       9.368220     -3.628346     -4.393480
  H       6.602097      3.573462     -4.586751
  O       6.728196      2.945807     -5.332626
  H       5.874430      2.960919     -5.804912
  H       5.192170      4.320661     -3.042921
  O       6.157850      4.374063     -3.017175
  H       6.410347      3.814181     -2.263241
  S       9.425953      2.597922     -7.304600
  H       8.435990      3.105614     -6.528315
  H       8.994144      3.236502     -8.410747
33
Coordinates from ORCA-job neb_36_318_CI_MEP.QMRegion E -2131.001608907353
  H       7.829344     -1.750783     -4.132553
  O       7.658443     -1.388020     -3.226782
  H       7.191666     -0.529925     -3.380646
  H       8.187137     -1.532288     -6.154356
  O       8.125825     -2.370703     -5.659981
  H       7.216707     -2.666486     -5.898493
  H       7.823908      0.862292     -7.040471
  O       7.399597     -0.004662     -6.992216
  H       6.435528      0.130675     -6.837009
  H       9.419328      0.192592     -0.962442
  O       8.656421      0.428075     -0.419747
  H       8.447770     -0.411706      0.027027
  H       6.040894      1.965923     -0.416018
  O       6.593759      2.168390     -1.188451
  H       7.411961      1.669017     -0.986189
  H       6.390323      1.507386     -4.277500
  O       6.233009      0.829389     -3.586239
  H       6.155994      1.311140     -2.737723
  H       9.569807     -2.183101     -0.945201
  O       9.900318     -1.936589     -1.821855
  H       9.092489     -1.627492     -2.297656
  H       9.994292     -3.396510     -3.078379
  O       9.826522     -4.087964     -3.747897
  H       9.371457     -3.630354     -4.468680
  H       6.565113      3.549694     -4.609634
  O       6.708920      2.912689     -5.342659
  H       5.863558      2.927623     -5.829332
  H       5.134826      4.324235     -3.085584
  O       6.100997      4.362645     -3.042353
  H       6.331656      3.799962     -2.283923
  S       9.904900      2.246238     -6.583717
  H       9.076653      2.421682     -5.533909
  H       9.331481      3.270986     -7.246484
33
Coordinates from ORCA-job neb_36_318_CI_MEP.QMRegion E -2131.001603186136
  H       7.838213     -1.762961     -4.122444
  O       7.670013     -1.402165     -3.214981
  H       7.201931     -0.544117     -3.365188
  H       8.181143     -1.526149     -6.142440
  O       8.128952     -2.369253     -5.653483
  H       7.220572     -2.668796     -5.889088
  H       7.823483      0.869521     -6.971227
  O       7.404795     -0.001207     -6.972063
  H       6.440600      0.124674     -6.812325
  H       9.415434      0.169427     -0.952537
  O       8.654747      0.409963     -0.408698
  H       8.446011     -0.428118      0.042187
  H       6.039466      1.948123     -0.400202
  O       6.592615      2.151833     -1.172836
  H       7.411007      1.653182     -0.969320
  H       6.396738      1.489066     -4.265129
  O       6.243671      0.813409     -3.570531
  H       6.164545      1.297280     -2.722885
  H       9.583435     -2.189753     -0.934168
  O       9.912753     -1.939898     -1.810337
  H       9.101928     -1.638682     -2.286333
  H      10.005693     -3.405846     -3.064253
  O       9.835254     -4.098400     -3.731913
  H       9.386694     -3.641154     -4.456570
  H       6.581535      3.522223     -4.608754
  O       6.718475      2.886468     -5.343681
  H       5.869973      2.908019     -5.824143
  H       5.140872      4.310308     -3.089970
  O       6.106695      4.340761     -3.036933
  H       6.324767      3.779235     -2.273765
  S       9.976075      2.151630     -6.354023
  H       9.235724      2.131949     -5.229309
  H       9.359436      3.273440     -6.772179
33
Coordinates from ORCA-job neb_36_318_CI_MEP.QMRegion E -2131.001885987004
  H       7.847792     -1.792012     -4.092189
  O       7.689704     -1.423486     -3.185425
  H       7.207100     -0.572687     -3.334487
  H       8.180693     -1.559087     -6.101661
  O       8.123777     -2.404079     -5.616827
  H       7.215205     -2.697290     -5.860257
  H       7.802364      0.848518     -6.876678
  O       7.397430     -0.026511     -6.919792
  H       6.428998      0.088582     -6.776416
  H       9.417315      0.146997     -0.907438
  O       8.650174      0.380184     -0.370419
  H       8.437099     -0.465469      0.066237
  H       6.043080      1.918125     -0.367050
  O       6.594275      2.119088     -1.142957
  H       7.412247      1.619826     -0.937778
  H       6.395255      1.451174     -4.222817
  O       6.244487      0.773966     -3.528608
  H       6.162671      1.255462     -2.679189
  H       9.592972     -2.227298     -0.891751
  O       9.922254     -1.991113     -1.771756
  H       9.114409     -1.679303     -2.244319
  H      10.014177     -3.441902     -3.024386
  O       9.856692     -4.126048     -3.704704
  H       9.400030     -3.665897     -4.422295
  H       6.578959      3.469358     -4.567751
  O       6.713715      2.831844     -5.302091
  H       5.873221      2.871789     -5.794933
  H       5.139040      4.284976     -3.059203
  O       6.104710      4.301088     -3.002613
  H       6.312825      3.733331     -2.240641
  S      10.035492      2.034852     -6.053007
  H       9.315299      1.799723     -4.944130
  H       9.332401      3.153684     -6.307390
33
Coordinates from ORCA-job neb_36_318_CI_MEP.QMRegion E -2131.001521639014
  H       7.855246     -1.772950     -4.125215
  O       7.701259     -1.406356     -3.217675
  H       7.212295     -0.558165     -3.363551
  H       8.192537     -1.531618     -6.136125
  O       8.127978     -2.378984     -5.659234
  H       7.215997     -2.666824     -5.897768
  H       7.715479      0.937745     -6.834448
  O       7.384148      0.038573     -6.927666
  H       6.406917      0.095199     -6.797158
  H       9.426115      0.190472     -0.930919
  O       8.637778      0.393433     -0.413510
  H       8.439635     -0.456614      0.020707
  H       6.040903      1.936200     -0.400561
  O       6.588124      2.135412     -1.178694
  H       7.409452      1.641097     -0.976289
  H       6.395317      1.455478     -4.247992
  O       6.244993      0.780829     -3.551403
  H       6.163326      1.264245     -2.702787
  H       9.606205     -2.225708     -0.916198
  O       9.933492     -1.998540     -1.798965
  H       9.129961     -1.673424     -2.268097
  H      10.025488     -3.433706     -3.053324
  O       9.863164     -4.116912     -3.733689
  H       9.418392     -3.650650     -4.454626
  H       6.593986      3.459151     -4.599991
  O       6.720731      2.819724     -5.335389
  H       5.881396      2.875957     -5.829291
  H       5.142333      4.299716     -3.107458
  O       6.108608      4.303459     -3.052602
  H       6.310398      3.740459     -2.285446
  S      10.159848      1.894762     -5.331915
  H       9.351740      1.124113     -4.588883
  H       9.200992      2.827357     -5.488917
33
Coordinates from ORCA-job neb_36_318_CI_MEP.QMRegion E -2131.001304494096
  H       7.852157     -1.764715     -4.139209
  O       7.699915     -1.402511     -3.230463
  H       7.209068     -0.553977     -3.370394
  H       8.189598     -1.506487     -6.154584
  O       8.130611     -2.356890     -5.683102
  H       7.218097     -2.649345     -5.914116
  H       7.665756      0.993733     -6.814986
  O       7.380568      0.081870     -6.928372
  H       6.400688      0.101615     -6.798967
  H       9.426093      0.217861     -0.955546
  O       8.629684      0.398388     -0.442919
  H       8.451539     -0.451511     -0.000601
  H       6.036471      1.945254     -0.412702
  O       6.580834      2.146292     -1.192042
  H       7.404944      1.655626     -0.992968
  H       6.395677      1.456463     -4.255659
  O       6.242000      0.783808     -3.558317
  H       6.163670      1.269988     -2.710617
  H       9.611832     -2.224872     -0.930561
  O       9.935984     -2.000222     -1.815006
  H       9.133054     -1.668857     -2.279615
  H      10.025383     -3.429861     -3.067766
  O       9.857361     -4.116021     -3.744131
  H       9.421088     -3.649694     -4.469651
  H       6.601631      3.460443     -4.612794
  O       6.724577      2.818395     -5.347451
  H       5.883709      2.876514     -5.838536
  H       5.146035      4.303386     -3.128886
  O       6.112472      4.308588     -3.076469
  H       6.316181      3.750380     -2.306140
  S      10.161993      1.765612     -4.766994
  H       9.358119      0.736211     -4.431889
  H       9.105976      2.555835     -5.048613
33
Coordinates from ORCA-job neb_36_318_CI_MEP.QMRegion E -2131.001813223699
  H       7.817784     -1.761420     -4.157674
  O       7.680353     -1.407155     -3.242681
  H       7.184763     -0.557453     -3.362761
  H       8.149285     -1.460504     -6.160758
  O       8.111098     -2.319915     -5.701564
  H       7.202572     -2.628328     -5.929969
  H       7.627892      1.039340     -6.770386
  O       7.372998      0.124451     -6.926713
  H       6.391752      0.117139     -6.801502
  H       9.394567      0.255849     -1.021967
  O       8.617508      0.390400     -0.467753
  H       8.484353     -0.469055     -0.028385
  H       6.042534      1.948105     -0.407982
  O       6.586382      2.146525     -1.188370
  H       7.405084      1.643071     -0.994287
  H       6.386265      1.456723     -4.242834
  O       6.228960      0.784811     -3.546310
  H       6.160593      1.271229     -2.696986
  H       9.605434     -2.262785     -0.946570
  O       9.909416     -2.058648     -1.842584
  H       9.105530     -1.707233     -2.288605
  H       9.994891     -3.453138     -3.095354
  O       9.832633     -4.137129     -3.776643
  H       9.379391     -3.673997     -4.493275
  H       6.624008      3.463914     -4.621398
  O       6.729139      2.810868     -5.348312
  H       5.881898      2.872119     -5.828229
  H       5.171301      4.298982     -3.115220
  O       6.137734      4.317110     -3.069700
  H       6.352270      3.759755     -2.301419
  S      10.077271      1.457046     -4.051325
  H       9.376483      0.305575     -4.112585
  H       9.039045      2.167089     -4.538791
