27
Coordinates from ORCA-job neb_136_242_CI_MEP.QMRegion E -1988.352343639074
  H      -4.974608      5.786345     -5.601696
  O      -4.419452      4.984912     -5.644431
  H      -3.623311      5.189527     -6.170124
  H      -5.853308      4.641599     -2.931470
  O      -6.752824      4.534200     -3.310230
  H      -6.601301      3.804431     -3.958008
  H      -5.391932      3.406791     -5.616524
  O      -5.928208      2.708562     -5.199598
  H      -5.263298      2.131289     -4.756663
  H      -7.424169      1.568137     -5.309112
  O      -7.978518      0.822323     -5.029993
  H      -8.872518      1.210611     -4.845959
  H     -10.279457      2.867446     -4.939143
  O     -10.292981      2.004802     -4.501836
  H     -10.414748      2.272786     -3.560289
  H      -5.786374      7.418756     -4.163795
  O      -6.311610      6.823333     -4.740178
  H      -6.511638      6.027273     -4.182825
  H      -9.823773      5.794082     -4.521911
  O     -10.357568      4.974240     -4.441349
  H     -11.264870      5.256862     -4.581211
  H      -9.124122      7.967245     -3.966724
  O      -8.983524      7.389240     -4.723072
  H      -8.003952      7.269036     -4.752826
  S      -7.475085      8.975336     -7.550103
  H      -6.582195      8.222761     -6.878751
  H      -8.466295      8.588435     -6.719248
27
Coordinates from ORCA-job neb_136_242_CI_MEP.QMRegion E -1988.351132102949
  H      -4.978660      5.870066     -5.570494
  O      -4.431278      5.063230     -5.639368
  H      -3.633525      5.264825     -6.163664
  H      -5.860200      4.695895     -2.889538
  O      -6.761163      4.594486     -3.267989
  H      -6.605036      3.874307     -3.923735
  H      -5.368421      3.481479     -5.563458
  O      -5.908156      2.779677     -5.154654
  H      -5.249187      2.185448     -4.726639
  H      -7.399580      1.627439     -5.268517
  O      -7.965120      0.880786     -5.014874
  H      -8.855917      1.279657     -4.833394
  H     -10.239598      2.960515     -4.919385
  O     -10.270957      2.085780     -4.508754
  H     -10.406259      2.327187     -3.560239
  H      -5.771593      7.471664     -4.171315
  O      -6.314476      6.869129     -4.725430
  H      -6.503543      6.090612     -4.143391
  H      -9.765256      5.892371     -4.375679
  O     -10.312586      5.077403     -4.352818
  H     -11.208719      5.382409     -4.515686
  H      -9.059866      8.075821     -3.820829
  O      -8.936780      7.484992     -4.569988
  H      -7.956331      7.375121     -4.638430
  S      -7.954549      7.577169     -8.135193
  H      -7.152027      6.576316     -7.720392
  H      -8.573789      7.642202     -6.936992
27
Coordinates from ORCA-job neb_136_242_CI_MEP.QMRegion E -1988.350145436043
  H      -4.995016      5.832218     -5.585133
  O      -4.438982      5.029909     -5.643898
  H      -3.643078      5.238372     -6.167790
  H      -5.849728      4.669530     -2.905738
  O      -6.752478      4.564426     -3.278256
  H      -6.603597      3.841843     -3.933284
  H      -5.390837      3.450934     -5.586174
  O      -5.927928      2.746975     -5.178630
  H      -5.265164      2.163910     -4.741389
  H      -7.432672      1.606924     -5.283692
  O      -7.990468      0.860157     -5.014414
  H      -8.881873      1.255239     -4.828069
  H     -10.266068      2.937065     -4.924212
  O     -10.297295      2.067736     -4.501438
  H     -10.423159      2.323712     -3.555294
  H      -5.772611      7.456022     -4.166642
  O      -6.315016      6.851614     -4.717083
  H      -6.503997      6.074484     -4.134126
  H      -9.778636      5.871997     -4.396105
  O     -10.321751      5.052294     -4.394065
  H     -11.219441      5.355238     -4.552748
  H      -9.065450      8.019694     -3.783081
  O      -8.953573      7.453368     -4.552470
  H      -7.973980      7.357917     -4.646713
  S      -7.953312      7.229262     -8.148320
  H      -7.376648      6.034674     -7.912121
  H      -8.677534      7.165566     -7.013023
27
Coordinates from ORCA-job neb_136_242_CI_MEP.QMRegion E -1988.349803611135
  H      -5.002769      5.805656     -5.599824
  O      -4.442674      5.005359     -5.645793
  H      -3.648194      5.212248     -6.172046
  H      -5.854049      4.651707     -2.914218
  O      -6.757061      4.544589     -3.284837
  H      -6.609831      3.821354     -3.939082
  H      -5.397053      3.430331     -5.591982
  O      -5.934672      2.724576     -5.187543
  H      -5.271371      2.143712     -4.747480
  H      -7.439852      1.585669     -5.288272
  O      -7.996787      0.838633     -5.017977
  H      -8.888441      1.231951     -4.831106
  H     -10.276644      2.911894     -4.927022
  O     -10.305737      2.044091     -4.501248
  H     -10.428843      2.302702     -3.555904
  H      -5.774907      7.436813     -4.168927
  O      -6.316598      6.835523     -4.722568
  H      -6.508556      6.057285     -4.142947
  H      -9.774602      5.857575     -4.398392
  O     -10.317820      5.037076     -4.397812
  H     -11.217093      5.341691     -4.544388
  H      -9.063850      7.989781     -3.790405
  O      -8.955129      7.433639     -4.567539
  H      -7.975740      7.339423     -4.666257
  S      -8.023355      6.701641     -8.185383
  H      -7.592477      5.437495     -7.994738
  H      -8.720600      6.701129     -7.031770
27
Coordinates from ORCA-job neb_136_242_CI_MEP.QMRegion E -1988.349745719655
  H      -5.012959      5.803834     -5.620924
  O      -4.442856      5.009911     -5.646904
  H      -3.651774      5.215172     -6.178498
  H      -5.856456      4.657141     -2.924792
  O      -6.760183      4.547228     -3.293130
  H      -6.611937      3.826423     -3.949123
  H      -5.392388      3.440638     -5.603598
  O      -5.928760      2.729259     -5.205546
  H      -5.266047      2.150790     -4.762504
  H      -7.435108      1.589304     -5.289395
  O      -7.992291      0.841931     -5.020293
  H      -8.883737      1.233779     -4.829960
  H     -10.279068      2.904910     -4.922553
  O     -10.303665      2.038166     -4.494557
  H     -10.425163      2.299077     -3.549390
  H      -5.773050      7.446026     -4.175342
  O      -6.312956      6.849271     -4.735578
  H      -6.509249      6.069915     -4.160490
  H      -9.757407      5.858080     -4.412328
  O     -10.303295      5.038271     -4.402719
  H     -11.204036      5.347769     -4.532361
  H      -9.048934      7.963750     -3.817855
  O      -8.953237      7.431071     -4.613452
  H      -7.974631      7.335922     -4.720802
  S      -8.020802      6.142444     -8.100995
  H      -7.839447      4.807178     -8.034712
  H      -8.758155      6.155031     -6.972848
27
Coordinates from ORCA-job neb_136_242_CI_MEP.QMRegion E -1988.350067696652
  H      -5.001241      5.683995     -5.619055
  O      -4.422418      4.896891     -5.621867
  H      -3.631988      5.110843     -6.149427
  H      -5.847547      4.623450     -2.926210
  O      -6.752352      4.514251     -3.291895
  H      -6.618867      3.777631     -3.934093
  H      -5.474117      3.344264     -5.612637
  O      -5.994237      2.649860     -5.170238
  H      -5.308793      2.096934     -4.725979
  H      -7.472200      1.542488     -5.280789
  O      -8.034382      0.795326     -5.015975
  H      -8.925745      1.187610     -4.837699
  H     -10.296261      2.901267     -4.933332
  O     -10.349447      2.030296     -4.516177
  H     -10.466583      2.283404     -3.570274
  H      -5.755174      7.387093     -4.167683
  O      -6.287260      6.793183     -4.736598
  H      -6.495648      6.009703     -4.170330
  H      -9.767179      5.848853     -4.442280
  O     -10.302639      5.021065     -4.479358
  H     -11.198602      5.320827     -4.654912
  H      -9.035715      7.970655     -3.838305
  O      -8.938932      7.396698     -4.603786
  H      -7.961410      7.285800     -4.703904
  S      -7.897827      5.495904     -7.736948
  H      -7.992051      4.160917     -7.935242
  H      -8.919631      5.483935     -6.850559
27
Coordinates from ORCA-job neb_136_242_CI_MEP.QMRegion E -1988.351434213327
  H      -4.990748      5.667205     -5.614869
  O      -4.413731      4.879544     -5.614927
  H      -3.623194      5.093803     -6.141218
  H      -5.858282      4.632018     -2.926892
  O      -6.762964      4.526829     -3.293859
  H      -6.630947      3.789105     -3.936421
  H      -5.530308      3.318925     -5.633527
  O      -6.014190      2.631901     -5.144629
  H      -5.304813      2.098366     -4.714977
  H      -7.475651      1.546457     -5.267555
  O      -8.047461      0.798420     -5.020208
  H      -8.938307      1.192298     -4.852499
  H     -10.309268      2.916004     -4.948953
  O     -10.373003      2.043621     -4.536918
  H     -10.486475      2.290204     -3.589580
  H      -5.747574      7.376319     -4.192167
  O      -6.273352      6.784921     -4.769709
  H      -6.504217      6.005244     -4.204992
  H      -9.724406      5.854247     -4.524354
  O     -10.268477      5.029437     -4.537754
  H     -11.150059      5.334261     -4.770327
  H      -9.003423      7.948040     -3.920482
  O      -8.915367      7.400423     -4.706238
  H      -7.938243      7.289059     -4.809076
  S      -7.945630      4.592978     -7.419267
  H      -8.236473      3.284982     -7.590867
  H      -8.923461      4.745206     -6.497422
