36
Coordinates from ORCA-job neb_287_449_CI_MEP.QMRegion E -2202.355828171620
  H      -2.411992     -3.601099      1.909133
  O      -2.455523     -4.517233      2.263705
  H      -1.506463     -4.784846      2.354523
  H       0.733250     -4.985962      1.923982
  O       0.189352     -5.102932      2.730100
  H       0.369029     -6.032290      2.972002
  H      -2.130040     -8.106808      0.339079
  O      -1.823651     -7.635531      1.149828
  H      -2.635467     -7.364868      1.591607
  H      -5.334045     -5.238329      1.767664
  O      -4.646227     -5.836682      1.389422
  H      -3.813769     -5.340720      1.544430
  H      -4.384225     -2.524639      4.172682
  O      -5.301914     -2.241510      3.978636
  H      -5.186736     -1.452435      3.400800
  H      -5.824322     -3.228087      1.250734
  O      -6.304174     -3.781956      1.915687
  H      -6.120715     -3.305630      2.747557
  H      -5.645040     -8.125905     -0.818207
  O      -4.976364     -8.209408     -0.099933
  H      -4.928240     -7.332033      0.320907
  H      -2.007825     -3.063838      4.645934
  O      -2.890797     -3.497658      4.721239
  H      -2.891335     -4.030511      3.893247
  H      -0.106549     -8.094987      2.457892
  O       0.711411     -7.845654      2.908280
  H       1.428678     -8.109026      2.297689
  H      -5.346192     -1.991526      6.933026
  O      -6.024411     -1.486740      6.452100
  H      -5.977247     -1.826794      5.535256
  H      -3.691724     -3.687519      7.797558
  O      -3.752094     -2.885934      7.266356
  H      -3.454730     -3.170002      6.379538
  S      -3.783062     -6.284075      6.869579
  H      -4.981000     -6.015863      6.306591
  H      -3.132686     -5.562025      5.930137
36
Coordinates from ORCA-job neb_287_449_CI_MEP.QMRegion E -2202.353756306899
  H      -2.420705     -3.607286      1.923297
  O      -2.461047     -4.520525      2.285378
  H      -1.510756     -4.784467      2.367756
  H       0.732073     -4.991787      1.925940
  O       0.190328     -5.106453      2.733854
  H       0.374319     -6.033152      2.981698
  H      -2.130734     -8.120088      0.356321
  O      -1.815760     -7.653383      1.166124
  H      -2.621832     -7.400386      1.627849
  H      -5.352956     -5.214214      1.776638
  O      -4.671620     -5.825721      1.406009
  H      -3.833057     -5.343678      1.567700
  H      -4.389516     -2.489284      4.185744
  O      -5.312524     -2.215076      3.994455
  H      -5.202947     -1.431575      3.408276
  H      -5.825892     -3.210358      1.260019
  O      -6.308207     -3.757826      1.928614
  H      -6.121672     -3.279958      2.759316
  H      -5.648542     -8.129421     -0.801081
  O      -4.977967     -8.213562     -0.084812
  H      -4.937695     -7.339351      0.343452
  H      -2.019383     -2.998012      4.643592
  O      -2.908039     -3.417546      4.722527
  H      -2.899482     -3.987161      3.922462
  H      -0.097791     -8.101324      2.482629
  O       0.721358     -7.849759      2.929462
  H       1.435872     -8.112835      2.315547
  H      -5.333132     -1.995126      6.956191
  O      -6.005643     -1.490336      6.471812
  H      -5.953608     -1.825033      5.551278
  H      -3.538570     -3.669163      7.871325
  O      -3.700773     -2.930632      7.279031
  H      -3.408066     -3.242227      6.396622
  S      -3.851593     -6.760897      6.267367
  H      -5.087791     -6.298273      5.985154
  H      -3.299349     -6.039662      5.270488
36
Coordinates from ORCA-job neb_287_449_CI_MEP.QMRegion E -2202.352565898817
  H      -2.401884     -3.631298      1.940101
  O      -2.429286     -4.548482      2.290283
  H      -1.475087     -4.804032      2.365700
  H       0.752872     -5.007119      1.919686
  O       0.214525     -5.122593      2.730468
  H       0.390573     -6.053637      2.969180
  H      -2.111907     -8.154785      0.348593
  O      -1.800796     -7.690267      1.162281
  H      -2.611261     -7.419015      1.605620
  H      -5.321536     -5.242994      1.772595
  O      -4.638702     -5.850276      1.398187
  H      -3.801346     -5.364605      1.555822
  H      -4.363967     -2.506467      4.169186
  O      -5.289336     -2.236436      3.978215
  H      -5.185121     -1.449473      3.396013
  H      -5.812246     -3.234297      1.252161
  O      -6.287955     -3.787962      1.920174
  H      -6.095738     -3.311744      2.750829
  H      -5.647573     -8.137381     -0.807773
  O      -4.978685     -8.228282     -0.090642
  H      -4.929934     -7.355171      0.338876
  H      -2.009779     -2.989043      4.627424
  O      -2.897228     -3.407444      4.728047
  H      -2.880961     -4.030665      3.972908
  H      -0.082585     -8.130616      2.471984
  O       0.732327     -7.871418      2.922063
  H       1.451075     -8.130208      2.310653
  H      -5.318836     -2.003469      6.939275
  O      -5.991083     -1.502089      6.452419
  H      -5.927104     -1.835506      5.530935
  H      -3.435811     -3.654287      7.884706
  O      -3.661418     -2.951887      7.270457
  H      -3.355691     -3.264646      6.390056
  S      -3.804072     -7.050483      5.910612
  H      -4.999241     -6.424971      5.988857
  H      -3.478249     -6.400892      4.772684
36
Coordinates from ORCA-job neb_287_449_CI_MEP.QMRegion E -2202.352255032474
  H      -2.410851     -3.629129      1.948237
  O      -2.441178     -4.547762      2.293359
  H      -1.488132     -4.804750      2.370980
  H       0.745296     -5.008359      1.923548
  O       0.204867     -5.119082      2.733125
  H       0.379912     -6.047729      2.980178
  H      -2.111751     -8.151274      0.350383
  O      -1.798787     -7.688040      1.163785
  H      -2.607546     -7.413247      1.607312
  H      -5.329517     -5.231668      1.773370
  O      -4.645600     -5.847795      1.413377
  H      -3.807686     -5.359030      1.564708
  H      -4.372502     -2.511203      4.167763
  O      -5.297257     -2.238514      3.977597
  H      -5.190714     -1.451191      3.396243
  H      -5.816234     -3.229546      1.251342
  O      -6.293365     -3.785469      1.916869
  H      -6.104863     -3.311049      2.749435
  H      -5.648614     -8.138262     -0.805265
  O      -4.979361     -8.226740     -0.088131
  H      -4.935169     -7.353973      0.342138
  H      -2.013336     -2.988348      4.629073
  O      -2.901870     -3.400447      4.745911
  H      -2.889007     -4.054205      4.018659
  H      -0.086858     -8.129142      2.483235
  O       0.730138     -7.870101      2.929341
  H       1.445885     -8.128524      2.314813
  H      -5.331569     -2.000939      6.942592
  O      -5.998969     -1.498493      6.451011
  H      -5.934374     -1.834480      5.530552
  H      -3.419633     -3.625948      7.901491
  O      -3.670904     -2.942150      7.276747
  H      -3.356204     -3.252549      6.396790
  S      -3.767804     -7.191910      5.578748
  H      -4.746050     -6.416350      6.091107
  H      -3.873147     -6.600802      4.369785
36
Coordinates from ORCA-job neb_287_449_CI_MEP.QMRegion E -2202.353167865646
  H      -2.423013     -3.631136      1.939474
  O      -2.458706     -4.549881      2.282654
  H      -1.507504     -4.810842      2.365019
  H       0.733623     -5.011114      1.921802
  O       0.190291     -5.119280      2.729519
  H       0.362899     -6.047483      2.979521
  H      -2.119886     -8.141760      0.348422
  O      -1.801404     -7.678370      1.158809
  H      -2.605043     -7.395465      1.606958
  H      -5.347068     -5.225637      1.768819
  O      -4.662648     -5.852339      1.426125
  H      -3.823051     -5.364125      1.577791
  H      -4.383870     -2.521590      4.157861
  O      -5.307779     -2.244645      3.970682
  H      -5.199027     -1.455666      3.391801
  H      -5.822366     -3.229298      1.245388
  O      -6.301363     -3.786605      1.908908
  H      -6.115253     -3.313522      2.742878
  H      -5.652572     -8.142334     -0.807253
  O      -4.983422     -8.230000     -0.089627
  H      -4.943769     -7.357814      0.341843
  H      -2.020747     -2.996711      4.617240
  O      -2.907836     -3.409010      4.743891
  H      -2.897800     -4.077204      4.029671
  H      -0.098119     -8.129654      2.487828
  O       0.722659     -7.870240      2.926720
  H       1.434165     -8.128702      2.307804
  H      -5.337894     -2.004852      6.939584
  O      -6.002220     -1.500206      6.446770
  H      -5.939399     -1.837750      5.526830
  H      -3.397241     -3.617845      7.899957
  O      -3.667818     -2.944363      7.271913
  H      -3.351141     -3.250098      6.390239
  S      -3.795518     -7.261995      5.236912
  H      -4.464139     -6.373047      6.000733
  H      -4.249649     -6.701512      4.094949
36
Coordinates from ORCA-job neb_287_449_CI_MEP.QMRegion E -2202.354967797788
  H      -2.428395     -3.633862      1.919349
  O      -2.471229     -4.549854      2.269631
  H      -1.522103     -4.817318      2.355707
  H       0.726056     -5.010593      1.919132
  O       0.180794     -5.122857      2.725012
  H       0.355471     -6.052421      2.970292
  H      -2.121407     -8.143965      0.354957
  O      -1.774028     -7.688635      1.157858
  H      -2.548660     -7.475734      1.686642
  H      -5.366232     -5.205817      1.756327
  O      -4.693205     -5.854587      1.428989
  H      -3.842552     -5.387763      1.582748
  H      -4.381080     -2.531758      4.148892
  O      -5.302788     -2.250961      3.960302
  H      -5.191331     -1.460176      3.383952
  H      -5.825992     -3.222829      1.238445
  O      -6.305810     -3.780241      1.901949
  H      -6.114888     -3.310896      2.736992
  H      -5.650947     -8.144089     -0.808103
  O      -4.982217     -8.230386     -0.090078
  H      -4.943522     -7.357187      0.339969
  H      -2.019225     -3.023242      4.615642
  O      -2.902521     -3.447259      4.729434
  H      -2.894875     -4.075614      3.976305
  H      -0.092989     -8.131863      2.481206
  O       0.725871     -7.869398      2.922736
  H       1.438588     -8.126217      2.304431
  H      -5.349612     -2.005804      6.918736
  O      -6.012794     -1.496809      6.428368
  H      -5.950225     -1.833219      5.508271
  H      -3.449718     -3.613262      7.882392
  O      -3.685653     -2.928368      7.253059
  H      -3.371549     -3.242792      6.374983
  S      -3.837903     -7.470585      4.831167
  H      -3.928570     -6.428314      5.681689
  H      -4.481228     -6.800124      3.850469
36
Coordinates from ORCA-job neb_287_449_CI_MEP.QMRegion E -2202.361000179126
  H      -2.445368     -3.619778      1.977725
  O      -2.509276     -4.528681      2.344255
  H      -1.569569     -4.822536      2.411289
  H       0.715441     -5.008744      1.956186
  O       0.178464     -5.115711      2.767267
  H       0.384847     -6.028475      3.043967
  H      -2.097437     -8.165956      0.430231
  O      -1.709856     -7.701455      1.204898
  H      -2.352910     -7.793816      1.929096
  H      -5.404970     -5.091793      1.764836
  O      -4.767078     -5.791869      1.456840
  H      -3.887830     -5.387151      1.622889
  H      -4.397159     -2.484153      4.186481
  O      -5.316617     -2.213280      3.978794
  H      -5.200754     -1.425988      3.397478
  H      -5.837696     -3.165922      1.247292
  O      -6.321154     -3.715539      1.916745
  H      -6.121066     -3.250587      2.752616
  H      -5.653234     -8.136375     -0.779669
  O      -4.980490     -8.215024     -0.065014
  H      -4.936020     -7.335212      0.347567
  H      -2.030767     -2.992116      4.692297
  O      -2.915914     -3.409305      4.809196
  H      -2.923935     -4.015643      4.038654
  H      -0.041524     -8.091140      2.517145
  O       0.762964     -7.873160      3.008678
  H       1.485463     -8.124053      2.399162
  H      -5.408135     -1.982032      6.925005
  O      -6.059852     -1.467452      6.424310
  H      -5.997160     -1.803522      5.505015
  H      -3.614382     -3.546429      7.967059
  O      -3.778541     -2.859778      7.317394
  H      -3.457127     -3.207599      6.456486
  S      -3.819016     -7.915000      3.819983
  H      -3.302715     -6.866797      4.495640
  H      -4.540006     -7.092158      3.007369
