27
Coordinates from ORCA-job neb_208_429_CI_MEP.QMRegion E -1988.351356470038
  H      -0.644674      8.783201     -2.258780
  O      -0.502842      9.604480     -1.728192
  H       0.270165      9.399845     -1.169077
  H      -1.831994      9.605708     -0.715463
  O      -2.624496      9.419774     -0.148832
  H      -3.238749     10.157137     -0.212653
  H      -2.295186      8.680340      1.340010
  O      -2.151013      8.091701      2.112373
  H      -1.383216      7.534869      1.873069
  H      -4.386936      6.381618      3.483844
  O      -4.573859      6.889399      2.676382
  H      -3.724199      7.346110      2.499636
  H      -1.800150      8.918439      3.560799
  O      -1.616446      9.291995      4.455148
  H      -2.481644      9.262283      4.903437
  H      -4.357753      8.801003      6.482609
  O      -4.211213      8.700060      5.537531
  H      -4.189278      7.730289      5.402322
  H      -1.989702     10.514786     -2.873169
  O      -2.907997     10.650747     -3.145271
  H      -2.855059     11.309209     -3.843865
  H      -4.300667      9.013402     -3.278471
  O      -4.908811      8.320963     -2.991439
  H      -4.403781      7.840557     -2.308768
  S      -4.302562     11.151808      2.515908
  H      -4.731159     10.064252      3.191648
  H      -3.094541     11.102631      3.117142
27
Coordinates from ORCA-job neb_208_429_CI_MEP.QMRegion E -1988.348782200027
  H      -0.627629      8.755074     -2.182620
  O      -0.497670      9.559234     -1.624835
  H       0.289054      9.355686     -1.081795
  H      -1.795529      9.520211     -0.605513
  O      -2.617553      9.367524     -0.068695
  H      -3.185563     10.148864     -0.162330
  H      -2.287666      8.641539      1.421268
  O      -2.140515      8.091345      2.221043
  H      -1.379429      7.523813      1.988120
  H      -4.393290      6.339461      3.525723
  O      -4.556512      6.842147      2.708753
  H      -3.702810      7.303036      2.569640
  H      -1.832103      8.967044      3.677364
  O      -1.606045      9.313612      4.569857
  H      -2.447327      9.290116      5.060469
  H      -4.108000      8.557612      6.849493
  O      -4.129102      8.622849      5.889795
  H      -4.139526      7.688067      5.597679
  H      -1.970740     10.343801     -2.791003
  O      -2.820678     10.433726     -3.244126
  H      -2.593212     10.834249     -4.087496
  H      -4.262214      8.928749     -3.248291
  O      -4.907386      8.269619     -2.959759
  H      -4.420736      7.776637     -2.270963
  S      -4.314593     12.095728      0.683794
  H      -5.183753     11.286048      1.325824
  H      -3.450341     12.064633      1.719986
27
Coordinates from ORCA-job neb_208_429_CI_MEP.QMRegion E -1988.344214991324
  H      -0.611935      8.740633     -2.162649
  O      -0.486525      9.546115     -1.606493
  H       0.301526      9.348092     -1.061860
  H      -1.811208      9.535416     -0.654499
  O      -2.673664      9.442767     -0.160839
  H      -3.259869     10.106534     -0.540575
  H      -2.312913      8.685902      1.407343
  O      -2.141674      8.124038      2.184433
  H      -1.380304      7.561472      1.938181
  H      -4.377769      6.331361      3.552553
  O      -4.551281      6.823581      2.729999
  H      -3.714222      7.309027      2.591792
  H      -1.820030      8.980783      3.680826
  O      -1.590382      9.305388      4.577621
  H      -2.434365      9.290285      5.065134
  H      -4.132009      8.613136      6.828400
  O      -4.117845      8.645469      5.867164
  H      -4.134876      7.703336      5.602996
  H      -1.855674     10.323194     -2.910192
  O      -2.738355     10.367750     -3.303089
  H      -2.609834     10.853728     -4.122011
  H      -4.201231      8.875575     -3.276185
  O      -4.880727      8.270730     -2.950477
  H      -4.407272      7.769863     -2.256693
  S      -4.328689     12.692482      0.185090
  H      -5.124348     11.607004      0.252105
  H      -3.439988     12.146488      1.037345
27
Coordinates from ORCA-job neb_208_429_CI_MEP.QMRegion E -1988.342541777967
  H      -0.580121      8.762933     -2.289196
  O      -0.434645      9.598608     -1.782987
  H       0.322212      9.398771     -1.199226
  H      -1.803150      9.611554     -0.855235
  O      -2.655496      9.527391     -0.347148
  H      -3.301718     10.052131     -0.828515
  H      -2.279395      8.739592      1.240301
  O      -2.134334      8.159046      2.005636
  H      -1.361688      7.600279      1.785911
  H      -4.337806      6.378353      3.495499
  O      -4.534545      6.873872      2.681339
  H      -3.705598      7.359968      2.503220
  H      -1.767200      8.976495      3.538739
  O      -1.560705      9.277175      4.447905
  H      -2.428473      9.301496      4.892040
  H      -4.154269      8.739593      6.606351
  O      -4.119044      8.712567      5.645722
  H      -4.140952      7.757020      5.441089
  H      -1.806902     10.381802     -3.148890
  O      -2.710848     10.445634     -3.486882
  H      -2.626159     10.944810     -4.304507
  H      -4.134836      8.880323     -3.422146
  O      -4.818289      8.314542     -3.040874
  H      -4.344277      7.816910     -2.346050
  S      -4.565192     12.820201      0.409098
  H      -4.965751     11.865384     -0.458011
  H      -3.323768     12.299229      0.495880
27
Coordinates from ORCA-job neb_208_429_CI_MEP.QMRegion E -1988.344946151101
  H      -0.602449      8.760442     -2.279790
  O      -0.456966      9.597067     -1.772765
  H       0.300447      9.396198     -1.191385
  H      -1.818393      9.604759     -0.819103
  O      -2.623919      9.452860     -0.257649
  H      -3.289552     10.109797     -0.481546
  H      -2.273116      8.706095      1.278545
  O      -2.140148      8.126876      2.052917
  H      -1.369817      7.565857      1.832938
  H      -4.349772      6.359374      3.496401
  O      -4.545960      6.858958      2.685135
  H      -3.713696      7.343829      2.512223
  H      -1.779725      8.955616      3.552735
  O      -1.572028      9.272980      4.458398
  H      -2.437764      9.291135      4.906142
  H      -4.157953      8.703375      6.631568
  O      -4.133864      8.693558      5.670303
  H      -4.149273      7.740840      5.450202
  H      -1.851673     10.363456     -3.104830
  O      -2.739792     10.461252     -3.476210
  H      -2.594101     10.872094     -4.333175
  H      -4.154354      8.886495     -3.392144
  O      -4.828898      8.294566     -3.034853
  H      -4.355885      7.807411     -2.331869
  S      -4.598448     12.293703      0.591578
  H      -4.904067     12.076144     -0.703107
  H      -3.300228     12.532771      0.323028
27
Coordinates from ORCA-job neb_208_429_CI_MEP.QMRegion E -1988.349325973199
  H      -0.598900      8.772502     -2.332764
  O      -0.437298      9.619455     -1.848527
  H       0.312909      9.415875     -1.259777
  H      -1.781382      9.611394     -0.827573
  O      -2.568034      9.429917     -0.255962
  H      -3.191742     10.172636     -0.323183
  H      -2.239910      8.671179      1.227088
  O      -2.137974      8.093238      2.012474
  H      -1.364382      7.529044      1.812870
  H      -4.341721      6.360582      3.472986
  O      -4.538949      6.869775      2.668612
  H      -3.696945      7.334976      2.480607
  H      -1.761000      8.916607      3.495525
  O      -1.567461      9.250597      4.400121
  H      -2.441676      9.275838      4.830464
  H      -4.149229      8.718892      6.545134
  O      -4.141775      8.701679      5.583616
  H      -4.155994      7.746594      5.374282
  H      -1.889467     10.365668     -3.175242
  O      -2.730706     10.458258     -3.643826
  H      -2.473902     10.702176     -4.538014
  H      -4.128842      8.892037     -3.449065
  O      -4.797691      8.298073     -3.084115
  H      -4.327963      7.828410     -2.368332
  S      -4.500627     12.066693      0.049055
  H      -4.729341     12.175619     -1.275420
  H      -3.387515     12.824154     -0.018613
27
Coordinates from ORCA-job neb_208_429_CI_MEP.QMRegion E -1988.352991108505
  H      -0.640870      8.751296     -2.243260
  O      -0.495796      9.591790     -1.743133
  H       0.276651      9.401798     -1.177450
  H      -1.857746      9.608017     -0.734763
  O      -2.689185      9.474827     -0.216680
  H      -3.284893     10.205961     -0.456089
  H      -2.333129      8.702395      1.295934
  O      -2.195445      8.112891      2.064491
  H      -1.420254      7.561556      1.842524
  H      -4.422220      6.372237      3.490073
  O      -4.622148      6.863147      2.675121
  H      -3.797434      7.362790      2.511661
  H      -1.847244      8.942221      3.569046
  O      -1.632321      9.266866      4.470458
  H      -2.492686      9.280799      4.927627
  H      -4.242398      8.698047      6.650205
  O      -4.210534      8.683473      5.688996
  H      -4.194080      7.729337      5.473550
  H      -1.768886     10.296279     -3.180879
  O      -2.534962     10.352074     -3.771921
  H      -2.150876     10.459352     -4.647273
  H      -4.115018      8.867246     -3.479367
  O      -4.813002      8.335133     -3.078233
  H      -4.359637      7.864960     -2.352650
  S      -4.206922     12.199189     -1.404278
  H      -3.725912     11.754821     -2.588114
  H      -3.110340     12.947962     -1.169066
