21
Coordinates from ORCA-job neb_112_436_CI_MEP.QMRegion E -1845.685586091273
  H      -3.822613      4.799365      7.800924
  O      -3.325012      4.237838      7.160376
  H      -3.545209      3.317848      7.392694
  H      -3.819999      5.309360      5.626620
  O      -3.775191      6.141314      5.129657
  H      -2.831593      6.406917      5.265126
  H      -6.323525      3.113566      7.257825
  O      -6.270026      2.512814      8.038299
  H      -6.820754      1.739105      7.781612
  H      -5.664598      3.731761      5.220055
  O      -6.401773      4.071435      5.777388
  H      -6.242457      5.018999      5.825105
  H      -3.893255      5.521253      9.688287
  O      -4.448103      5.885764      8.967885
  H      -5.354465      5.695647      9.269673
  H      -3.705197      9.029128      6.654857
  O      -3.943385      8.970793      5.725315
  H      -4.106432      8.019625      5.587442
  S      -7.351862      4.783123     10.204003
  H      -7.069925      3.702445      9.418997
  H      -8.216634      5.293969      9.304739
21
Coordinates from ORCA-job neb_112_436_CI_MEP.QMRegion E -1845.679606724960
  H      -3.824689      4.646240      7.760943
  O      -3.285879      4.139346      7.108135
  H      -3.482607      3.205440      7.319503
  H      -3.782396      5.222453      5.606807
  O      -3.741428      6.057271      5.111659
  H      -2.803590      6.335465      5.255528
  H      -6.278538      3.069626      7.269535
  O      -6.235469      2.500774      8.068602
  H      -6.783396      1.724769      7.824515
  H      -5.689035      3.663284      5.197082
  O      -6.438859      4.001536      5.739936
  H      -6.290253      4.951440      5.757584
  H      -3.901689      5.278397      9.675233
  O      -4.518244      5.569523      8.969177
  H      -5.388404      5.306077      9.310214
  H      -3.678041      8.906132      6.666095
  O      -3.929072      8.863986      5.739307
  H      -4.065859      7.910910      5.581309
  S      -7.634546      5.416374     10.048687
  H      -7.743480      4.843371      8.834974
  H      -7.688755      6.663670      9.544328
21
Coordinates from ORCA-job neb_112_436_CI_MEP.QMRegion E -1845.677468927823
  H      -3.851843      4.659130      7.744955
  O      -3.299896      4.176238      7.087522
  H      -3.500996      3.239239      7.275253
  H      -3.833146      5.296634      5.597100
  O      -3.783278      6.145728      5.129256
  H      -2.836109      6.398209      5.262744
  H      -6.304654      3.132577      7.232747
  O      -6.237716      2.559986      8.026223
  H      -6.799574      1.788394      7.803114
  H      -5.706089      3.724991      5.155512
  O      -6.460827      4.070956      5.683937
  H      -6.338628      5.024793      5.666149
  H      -4.030298      5.206022      9.706564
  O      -4.676945      5.433139      9.004321
  H      -5.477407      4.954478      9.256153
  H      -3.779715      9.050475      6.602663
  O      -3.982797      8.969208      5.666946
  H      -4.126376      8.012873      5.539455
  S      -7.840955      6.335494     10.001333
  H      -8.269396      5.570092      8.977709
  H      -7.058426      7.077185      9.190545
21
Coordinates from ORCA-job neb_112_436_CI_MEP.QMRegion E -1845.678422980502
  H      -3.853864      4.643455      7.748680
  O      -3.299589      4.159864      7.101256
  H      -3.495825      3.221762      7.296397
  H      -3.833911      5.250428      5.585657
  O      -3.787251      6.107762      5.134932
  H      -2.845146      6.371640      5.278692
  H      -6.325113      3.120170      7.238287
  O      -6.234122      2.566513      8.047177
  H      -6.802386      1.789837      7.859357
  H      -5.714621      3.707915      5.176081
  O      -6.463094      4.035823      5.723717
  H      -6.354980      4.991868      5.724002
  H      -4.122524      5.100725      9.756750
  O      -4.837681      5.205234      9.090879
  H      -5.377235      4.407076      9.183311
  H      -3.847773      9.032361      6.620241
  O      -3.991106      8.933464      5.675434
  H      -4.154167      7.980253      5.558725
  S      -7.806161      7.081601      9.695741
  H      -8.430739      6.470736      8.667799
  H      -6.697185      6.321909      9.560912
21
Coordinates from ORCA-job neb_112_436_CI_MEP.QMRegion E -1845.677853396476
  H      -3.885744      4.614397      7.745035
  O      -3.307851      4.168727      7.088468
  H      -3.488809      3.223143      7.257464
  H      -3.815960      5.274582      5.577451
  O      -3.775473      6.128922      5.119927
  H      -2.831502      6.393103      5.255798
  H      -6.310816      3.130412      7.211432
  O      -6.232521      2.571971      8.019206
  H      -6.809722      1.802154      7.830694
  H      -5.698118      3.715754      5.160041
  O      -6.448802      4.048955      5.702383
  H      -6.334827      5.004048      5.699009
  H      -4.200354      4.971003      9.758678
  O      -4.915709      5.059170      9.096313
  H      -5.431089      4.240841      9.162304
  H      -3.837012      9.054237      6.607916
  O      -3.988097      8.952118      5.664524
  H      -4.126311      7.994685      5.547007
  S      -7.686890      7.520697      9.203218
  H      -7.154529      6.938095      8.105659
  H      -7.176166      6.567843     10.015090
21
Coordinates from ORCA-job neb_112_436_CI_MEP.QMRegion E -1845.679932872105
  H      -3.909041      4.590801      7.774485
  O      -3.322146      4.175114      7.107016
  H      -3.490777      3.223349      7.251659
  H      -3.830189      5.294069      5.600204
  O      -3.783373      6.143676      5.134541
  H      -2.836900      6.401150      5.266188
  H      -6.316404      3.136084      7.216616
  O      -6.236091      2.566372      8.016341
  H      -6.811872      1.797298      7.819633
  H      -5.695937      3.731298      5.161523
  O      -6.452186      4.047358      5.704862
  H      -6.391904      5.006714      5.669998
  H      -4.243194      4.888218      9.796047
  O      -4.961713      4.976579      9.137958
  H      -5.477094      4.156381      9.190767
  H      -3.891406      9.100150      6.591446
  O      -3.996732      8.976128      5.644297
  H      -4.130927      8.017071      5.539114
  S      -6.895080      8.036808      8.529986
  H      -6.117693      7.034128      8.078114
  H      -6.972549      7.467639      9.749718
21
Coordinates from ORCA-job neb_112_436_CI_MEP.QMRegion E -1845.684299084247
  H      -3.891226      4.607526      7.812644
  O      -3.320621      4.179168      7.141417
  H      -3.483934      3.228980      7.303649
  H      -3.826973      5.269900      5.605915
  O      -3.768147      6.104180      5.117082
  H      -2.832593      6.383129      5.280856
  H      -6.306644      3.093877      7.240658
  O      -6.229502      2.548792      8.058936
  H      -6.798635      1.773197      7.870855
  H      -5.714383      3.658751      5.172215
  O      -6.483987      3.947823      5.715059
  H      -6.430526      4.907811      5.704721
  H      -4.230850      4.886751      9.836350
  O      -4.947898      5.001651      9.178794
  H      -5.497589      4.204211      9.234946
  H      -4.103203      9.056307      6.511583
  O      -4.045174      8.959375      5.553831
  H      -4.167962      8.003253      5.423978
  S      -5.679753      8.457114      8.648165
  H      -6.616774      8.188599      7.715470
  H      -5.458615      7.145087      8.889395
