36
Coordinates from ORCA-job neb_22_139_CI_MEP.QMRegion E -2202.366249170506
  H      -0.355459      6.868357     -2.292008
  O      -1.107804      7.277909     -2.790084
  H      -1.884424      7.151694     -2.197489
  H      -0.858573      4.459735     -4.054880
  O      -1.597537      5.059863     -4.265607
  H      -1.367364      5.900539     -3.821183
  H       0.647582      3.069047     -2.662157
  O       0.629453      3.432770     -3.578714
  H       0.726508      2.640552     -4.132143
  H       2.236119      5.823152     -1.166911
  O       3.174237      5.531417     -1.042292
  H       3.299384      4.842166     -1.718789
  H       3.408912      3.388908     -3.602233
  O       3.222563      4.349544     -3.473960
  H       2.249433      4.344656     -3.573141
  H      -1.687886      6.117213     -7.161298
  O      -2.053117      5.316226     -6.780167
  H      -1.777817      5.304354     -5.803205
  H       0.819873      2.920126     -7.165809
  O       1.762735      2.629695     -7.197269
  H       1.769999      1.845015     -7.787128
  H       3.515223      2.860120     -6.611343
  O       4.357473      2.582347     -6.216997
  H       4.104304      2.254774     -5.325567
  H       3.769870      7.149006     -1.370921
  O       3.903219      8.115882     -1.486348
  H       4.050126      8.199729     -2.433982
  H      -1.376051      3.694214     -7.027644
  O      -0.846338      2.915811     -6.753805
  H      -1.113745      2.129505     -7.288110
  H       3.934049      6.041742     -4.003581
  O       4.256009      6.939011     -4.209838
  H       5.183451      6.802083     -4.427886
  S       1.326158      6.579602     -6.117404
  H       1.909535      5.447305     -6.559190
  H       2.492840      7.063610     -5.633267
36
Coordinates from ORCA-job neb_22_139_CI_MEP.QMRegion E -2202.363914472082
  H      -0.380244      6.851053     -2.276064
  O      -1.130155      7.256607     -2.779720
  H      -1.908681      7.138329     -2.186202
  H      -0.914957      4.433742     -4.051394
  O      -1.628638      5.057454     -4.280475
  H      -1.410555      5.882564     -3.801241
  H       0.609731      3.052538     -2.665118
  O       0.579351      3.415591     -3.581605
  H       0.686824      2.625230     -4.136766
  H       2.209807      5.788599     -1.161973
  O       3.141074      5.478216     -1.026988
  H       3.256351      4.785144     -1.701967
  H       3.376115      3.367822     -3.597498
  O       3.179274      4.325475     -3.459373
  H       2.208010      4.314032     -3.570481
  H      -1.775833      6.121925     -7.179886
  O      -2.101916      5.308102     -6.792371
  H      -1.815339      5.300965     -5.819909
  H       0.777735      2.921585     -7.163057
  O       1.712902      2.611875     -7.196879
  H       1.707926      1.826043     -7.784561
  H       3.467877      2.834487     -6.618527
  O       4.318933      2.570398     -6.230147
  H       4.074465      2.241493     -5.337388
  H       3.745139      7.095141     -1.322377
  O       3.899105      8.058225     -1.443569
  H       4.145753      8.114057     -2.372118
  H      -1.446893      3.674128     -7.038109
  O      -0.906549      2.908210     -6.756184
  H      -1.159896      2.113670     -7.284702
  H       4.041377      5.969307     -3.916660
  O       4.539520      6.802631     -4.010422
  H       5.456654      6.514066     -4.068193
  S       2.205532      7.466843     -6.437219
  H       2.979695      6.660122     -7.191254
  H       3.159405      7.541591     -5.480298
36
Coordinates from ORCA-job neb_22_139_CI_MEP.QMRegion E -2202.363804625751
  H      -0.365559      6.860086     -2.268818
  O      -1.116582      7.263366     -2.774899
  H      -1.895484      7.144282     -2.182482
  H      -0.884919      4.445973     -4.048882
  O      -1.596372      5.071515     -4.279763
  H      -1.384561      5.893396     -3.791852
  H       0.630004      3.058777     -2.664523
  O       0.606242      3.425517     -3.579898
  H       0.708156      2.636351     -4.137842
  H       2.222945      5.794122     -1.163971
  O       3.152672      5.484419     -1.024961
  H       3.274052      4.788079     -1.695523
  H       3.398956      3.363530     -3.593913
  O       3.209059      4.322301     -3.450725
  H       2.237790      4.315708     -3.559947
  H      -1.760686      6.140541     -7.184574
  O      -2.089075      5.330288     -6.791148
  H      -1.795714      5.324293     -5.822460
  H       0.810604      2.939217     -7.167537
  O       1.739503      2.615044     -7.189301
  H       1.729995      1.831856     -7.780192
  H       3.503073      2.864472     -6.622401
  O       4.343102      2.576302     -6.228394
  H       4.085619      2.249555     -5.339183
  H       3.773937      7.099401     -1.318308
  O       3.922665      8.062583     -1.441323
  H       4.222968      8.110761     -2.354314
  H      -1.428766      3.682935     -7.038617
  O      -0.889378      2.917931     -6.754303
  H      -1.140973      2.124001     -7.284540
  H       4.123882      5.939826     -3.887045
  O       4.673002      6.743416     -3.944415
  H       5.573589      6.399835     -3.935815
  S       2.654139      7.816473     -6.540812
  H       3.620598      7.407294     -7.387663
  H       3.452395      7.598743     -5.469333
36
Coordinates from ORCA-job neb_22_139_CI_MEP.QMRegion E -2202.363743900301
  H      -0.353590      6.864561     -2.268695
  O      -1.105471      7.265967     -2.776606
  H      -1.884619      7.145181     -2.185556
  H      -0.848755      4.452438     -4.055269
  O      -1.560992      5.076627     -4.287637
  H      -1.356622      5.897513     -3.794770
  H       0.650038      3.059802     -2.668176
  O       0.633671      3.427652     -3.583216
  H       0.729752      2.638297     -4.142095
  H       2.236126      5.798300     -1.169648
  O       3.165385      5.490452     -1.029673
  H       3.290381      4.790135     -1.695319
  H       3.420828      3.359814     -3.596681
  O       3.235581      4.319625     -3.451416
  H       2.264065      4.314747     -3.557056
  H      -1.748686      6.147544     -7.194020
  O      -2.076702      5.339043     -6.796328
  H      -1.775361      5.333693     -5.831088
  H       0.841050      2.946000     -7.176098
  O       1.766404      2.614435     -7.187361
  H       1.756170      1.832611     -7.780243
  H       3.533281      2.881904     -6.628249
  O       4.364425      2.577950     -6.228339
  H       4.096944      2.251711     -5.342448
  H       3.799509      7.104647     -1.334048
  O       3.941066      8.069340     -1.449398
  H       4.266774      8.127174     -2.352853
  H      -1.405676      3.685621     -7.043709
  O      -0.868141      2.921341     -6.755320
  H      -1.119358      2.127841     -7.286772
  H       4.180120      5.918973     -3.872173
  O       4.756367      6.703148     -3.929498
  H       5.643539      6.326024     -3.896333
  S       2.956924      7.960418     -6.610674
  H       4.058950      8.115595     -7.373435
  H       3.689094      7.510682     -5.562435
36
Coordinates from ORCA-job neb_22_139_CI_MEP.QMRegion E -2202.363735072409
  H      -0.354686      6.865810     -2.268403
  O      -1.107655      7.266999     -2.774751
  H      -1.885999      7.145986     -2.182374
  H      -0.857817      4.455858     -4.050106
  O      -1.568683      5.080790     -4.284405
  H      -1.363106      5.902275     -3.792475
  H       0.645611      3.063276     -2.664776
  O       0.629371      3.432738     -3.579206
  H       0.727080      2.644151     -4.138845
  H       2.235629      5.803100     -1.166636
  O       3.165995      5.497413     -1.027974
  H       3.290443      4.795204     -1.691781
  H       3.418653      3.363670     -3.592180
  O       3.235235      4.323711     -3.446261
  H       2.263142      4.320142     -3.545424
  H      -1.760871      6.149513     -7.190276
  O      -2.078837      5.336561     -6.793626
  H      -1.780406      5.333786     -5.827063
  H       0.833767      2.942294     -7.172844
  O       1.761385      2.616302     -7.184862
  H       1.755445      1.835573     -7.779078
  H       3.531955      2.879736     -6.624771
  O       4.363037      2.576429     -6.224952
  H       4.096284      2.249776     -5.338996
  H       3.798455      7.112853     -1.327404
  O       3.940582      8.077165     -1.444896
  H       4.275893      8.132698     -2.345055
  H      -1.408289      3.684469     -7.042163
  O      -0.870511      2.920462     -6.753666
  H      -1.121363      2.126446     -7.284783
  H       4.203930      5.950312     -3.828024
  O       4.812248      6.707600     -3.899729
  H       5.682230      6.294273     -3.837262
  S       3.278328      7.893941     -6.747066
  H       4.155041      8.919494     -6.803273
  H       3.941718      7.331636     -5.706593
36
Coordinates from ORCA-job neb_22_139_CI_MEP.QMRegion E -2202.363831567449
  H      -0.347406      6.870507     -2.263825
  O      -1.100575      7.272109     -2.770823
  H      -1.879102      7.151273     -2.178735
  H      -0.846073      4.463809     -4.043980
  O      -1.556431      5.088607     -4.280878
  H      -1.352067      5.910695     -3.789368
  H       0.651860      3.070881     -2.654913
  O       0.638277      3.440590     -3.569629
  H       0.734980      2.651112     -4.127869
  H       2.240541      5.809180     -1.157515
  O       3.171631      5.506906     -1.019748
  H       3.302186      4.809646     -1.688412
  H       3.424816      3.365364     -3.573799
  O       3.253216      4.327655     -3.428978
  H       2.281865      4.334289     -3.530122
  H      -1.751815      6.149603     -7.189019
  O      -2.068853      5.337542     -6.789723
  H      -1.770228      5.338266     -5.823171
  H       0.848132      2.942777     -7.163724
  O       1.776391      2.618364     -7.179537
  H       1.769428      1.837689     -7.773874
  H       3.537422      2.875233     -6.605354
  O       4.372329      2.574498     -6.212057
  H       4.112321      2.247821     -5.323604
  H       3.805767      7.117357     -1.304242
  O       3.949600      8.080585     -1.431529
  H       4.324706      8.123157     -2.316618
  H      -1.389799      3.685840     -7.034918
  O      -0.854256      2.920030     -6.746922
  H      -1.107820      2.127081     -7.278858
  H       4.262950      6.005807     -3.834720
  O       4.925153      6.717800     -3.844332
  H       5.756843      6.242906     -3.717274
  S       3.938134      8.175326     -6.753424
  H       4.491779      9.294633     -6.240291
  H       4.446821      7.419166     -5.748131
36
Coordinates from ORCA-job neb_22_139_CI_MEP.QMRegion E -2202.363993734361
  H      -0.361874      6.864493     -2.266960
  O      -1.111558      7.268216     -2.775930
  H      -1.892693      7.149830     -2.186096
  H      -0.867530      4.460179     -4.057800
  O      -1.570924      5.090694     -4.300544
  H      -1.367410      5.909353     -3.803502
  H       0.635477      3.068193     -2.659137
  O       0.614895      3.436429     -3.574137
  H       0.717709      2.647353     -4.131922
  H       2.227394      5.800522     -1.162165
  O       3.157553      5.494185     -1.022945
  H       3.286219      4.804382     -1.699834
  H       3.407231      3.362686     -3.579497
  O       3.235927      4.325885     -3.441916
  H       2.264625      4.331991     -3.539597
  H      -1.785911      6.152920     -7.212783
  O      -2.086092      5.336526     -6.809673
  H      -1.784173      5.342316     -5.844409
  H       0.829697      2.936770     -7.168220
  O       1.758588      2.614308     -7.184389
  H       1.752682      1.830237     -7.774751
  H       3.525917      2.870920     -6.610525
  O       4.360480      2.572184     -6.215167
  H       4.098885      2.245324     -5.327191
  H       3.792936      7.101408     -1.306357
  O       3.952408      8.062161     -1.437324
  H       4.377230      8.086243     -2.300438
  H      -1.415187      3.676685     -7.048245
  O      -0.874790      2.917075     -6.755045
  H      -1.122415      2.119665     -7.283646
  H       4.320311      6.013944     -3.872558
  O       5.042208      6.655622     -3.770719
  H       5.806070      6.092108     -3.579030
  S       5.066920      8.626382     -6.552852
  H       5.259974      9.643470     -5.687698
  H       5.146798      7.705749     -5.558571
