21
Coordinates from ORCA-job neb_12_105_CI_MEP.QMRegion E -1845.681282325081
  H      -3.537172      6.349807     -0.482808
  O      -3.299540      7.004291     -1.193487
  H      -3.157096      7.869278     -0.745904
  H      -0.302742      6.859968     -2.308177
  O      -1.054412      7.308024     -2.774884
  H      -1.810477      7.121336     -2.171660
  H      -0.475942      8.903605     -2.026932
  O      -0.313207      9.646809     -1.403376
  H       0.424769      9.331710     -0.834128
  H      -1.772929      9.601924     -0.625326
  O      -2.690821      9.471641     -0.268440
  H      -3.229752     10.119267     -0.732790
  H      -2.153643     10.996434     -3.314259
  O      -3.068927     10.704966     -3.153493
  H      -3.591904     11.452986     -3.458463
  H      -4.229995      8.939088     -3.392909
  O      -4.932385      8.350242     -3.090090
  H      -4.524951      7.832325     -2.373635
  S      -0.080186     12.319230     -3.235057
  H       0.108765     11.315611     -2.335224
  H       0.746342     11.743506     -4.131487
21
Coordinates from ORCA-job neb_12_105_CI_MEP.QMRegion E -1845.681258107211
  H      -3.568866      6.347692     -0.487448
  O      -3.352466      7.005085     -1.202733
  H      -3.241857      7.871291     -0.759543
  H      -0.335771      6.848355     -2.287389
  O      -1.085381      7.297558     -2.756416
  H      -1.851103      7.110192     -2.165213
  H      -0.534364      8.867326     -2.033354
  O      -0.361437      9.622542     -1.422952
  H       0.387108      9.319652     -0.862297
  H      -1.800296      9.617234     -0.621812
  O      -2.699278      9.452683     -0.225299
  H      -3.220769     10.249649     -0.337944
  H      -2.129219     10.585446     -3.762382
  O      -3.052739     10.300619     -3.843989
  H      -3.507445     11.111510     -4.088446
  H      -4.300811      8.874781     -3.435181
  O      -5.038607      8.361152     -3.074557
  H      -4.641171      7.826310     -2.367888
  S      -0.347176     12.282858     -3.337322
  H      -0.057566     11.305483     -2.437288
  H       0.615670     11.876852     -4.188383
21
Coordinates from ORCA-job neb_12_105_CI_MEP.QMRegion E -1845.681238647699
  H      -3.578062      6.335077     -0.514035
  O      -3.358396      6.999720     -1.222674
  H      -3.281110      7.863085     -0.773565
  H      -0.348120      6.846388     -2.323674
  O      -1.097221      7.297696     -2.791213
  H      -1.865851      7.107741     -2.203722
  H      -0.553153      8.869424     -2.047468
  O      -0.376560      9.625678     -1.442650
  H       0.378717      9.325408     -0.889886
  H      -1.809180      9.638074     -0.615579
  O      -2.712008      9.475327     -0.228606
  H      -3.173552     10.315724     -0.189853
  H      -2.049158      9.894371     -4.098239
  O      -2.981614      9.951829     -4.305507
  H      -3.144910     10.896645     -4.211819
  H      -4.284317      8.804198     -3.578243
  O      -5.025377      8.354127     -3.139507
  H      -4.624485      7.821506     -2.435534
  S      -0.717334     12.341476     -3.323863
  H      -0.315267     11.350946     -2.486980
  H       0.279323     12.100366     -4.197676
21
Coordinates from ORCA-job neb_12_105_CI_MEP.QMRegion E -1845.681060259203
  H      -3.561626      6.403396     -0.460487
  O      -3.347982      7.077736     -1.158672
  H      -3.264741      7.932112     -0.697330
  H      -0.323892      6.878036     -2.263052
  O      -1.071054      7.326594     -2.733524
  H      -1.832053      7.158639     -2.134453
  H      -0.522932      8.935504     -1.996089
  O      -0.345529      9.693503     -1.391591
  H       0.412966      9.391508     -0.844830
  H      -1.753951      9.710095     -0.534866
  O      -2.664185      9.565201     -0.154276
  H      -3.074143     10.421631     -0.017977
  H      -2.634831      9.663517     -5.449646
  O      -2.655979      9.349757     -4.562847
  H      -2.286040     10.100346     -4.079990
  H      -4.176171      8.719862     -3.693432
  O      -4.938675      8.401241     -3.178860
  H      -4.550659      7.906770     -2.439253
  S      -1.410109     12.237647     -3.191264
  H      -0.634490     11.405391     -2.453542
  H      -0.472499     12.388265     -4.145937
21
Coordinates from ORCA-job neb_12_105_CI_MEP.QMRegion E -1845.682072660584
  H      -3.565730      6.432401     -0.475688
  O      -3.353877      7.101633     -1.179430
  H      -3.271246      7.964977     -0.727801
  H      -0.329812      6.937566     -2.274090
  O      -1.095975      7.373476     -2.731954
  H      -1.851604      7.189905     -2.123075
  H      -0.521580      8.988388     -1.959128
  O      -0.342152      9.754896     -1.375804
  H       0.413501      9.454172     -0.825172
  H      -1.791099      9.755486     -0.556071
  O      -2.694320      9.575647     -0.178023
  H      -3.175170     10.405505     -0.155260
  H      -2.628300      9.810912     -5.133636
  O      -2.579452      8.879823     -4.959297
  H      -1.861227      8.738253     -4.345806
  H      -4.134301      8.624422     -3.825545
  O      -4.906906      8.457913     -3.256699
  H      -4.553591      7.976638     -2.492340
  S      -1.745126     12.307021     -3.132976
  H      -0.794539     11.513176     -2.588484
  H      -1.243468     12.202899     -4.378300
21
Coordinates from ORCA-job neb_12_105_CI_MEP.QMRegion E -1845.681943858252
  H      -3.581992      6.389833     -0.484628
  O      -3.369477      7.059380     -1.190092
  H      -3.288600      7.920998     -0.736800
  H      -0.343869      6.893512     -2.280967
  O      -1.108344      7.331190     -2.739903
  H      -1.866240      7.144484     -2.135293
  H      -0.538069      8.939011     -1.975776
  O      -0.360313      9.705607     -1.391536
  H       0.396924      9.408230     -0.840665
  H      -1.805206      9.709013     -0.566961
  O      -2.708442      9.533048     -0.187018
  H      -3.183617     10.366142     -0.154445
  H      -2.661366      9.785379     -5.215044
  O      -2.616600      8.864743     -4.940493
  H      -1.892611      8.827214     -4.301492
  H      -4.155381      8.595379     -3.825524
  O      -4.924933      8.419515     -3.254860
  H      -4.570394      7.926825     -2.498533
  S      -1.724072     12.273782     -3.135984
  H      -0.793389     11.460270     -2.585779
  H      -1.198899     12.167827     -4.373814
21
Coordinates from ORCA-job neb_12_105_CI_MEP.QMRegion E -1845.681454964099
  H      -3.589635      6.356674     -0.483245
  O      -3.376039      7.027800     -1.188690
  H      -3.297890      7.887640     -0.732368
  H      -0.352214      6.861209     -2.272438
  O      -1.116708      7.301128     -2.728992
  H      -1.875576      7.104820     -2.128574
  H      -0.551907      8.889935     -1.972766
  O      -0.376574      9.659684     -1.389645
  H       0.385368      9.370097     -0.840779
  H      -1.812083      9.667581     -0.563741
  O      -2.717915      9.497782     -0.185411
  H      -3.183417     10.335113     -0.134984
  H      -2.708167      9.746549     -5.288760
  O      -2.636265      8.873489     -4.894798
  H      -1.938372      8.963911     -4.235255
  H      -4.166091      8.574003     -3.799627
  O      -4.934987      8.390616     -3.230230
  H      -4.581444      7.880317     -2.484810
  S      -1.701688     12.213278     -3.138972
  H      -0.785193     11.405806     -2.556166
  H      -1.101204     12.162103     -4.340203
21
Coordinates from ORCA-job neb_12_105_CI_MEP.QMRegion E -1845.681127507065
  H      -3.555348      6.415183     -0.496252
  O      -3.344650      7.076984     -1.208312
  H      -3.271469      7.950303     -0.769812
  H      -0.341383      6.913963     -2.290663
  O      -1.112338      7.343895     -2.746699
  H      -1.874793      7.168884     -2.137954
  H      -0.554656      8.989577     -1.983992
  O      -0.385573      9.749401     -1.392515
  H       0.377045      9.457310     -0.847735
  H      -1.840154      9.740096     -0.590290
  O      -2.745699      9.549533     -0.223469
  H      -3.248180     10.367156     -0.255379
  H      -2.124387      9.408631     -4.902745
  O      -2.500202      8.525087     -4.910635
  H      -1.837309      7.996342     -4.436789
  H      -4.114631      8.550371     -3.817075
  O      -4.910140      8.449163     -3.264731
  H      -4.601551      7.963310     -2.484713
  S      -1.480195     12.623413     -3.175244
  H      -0.832438     11.596685     -2.577722
  H      -2.243461     11.809599     -3.933481
21
Coordinates from ORCA-job neb_12_105_CI_MEP.QMRegion E -1845.688686909520
  H      -3.594625      6.344306     -0.508507
  O      -3.381163      7.012822     -1.216956
  H      -3.338866      7.879586     -0.768804
  H      -0.359160      6.862812     -2.280126
  O      -1.131625      7.297062     -2.732699
  H      -1.893801      7.096516     -2.133653
  H      -0.610496      8.899617     -1.980917
  O      -0.455725      9.670050     -1.394154
  H       0.319024      9.402975     -0.855021
  H      -1.894750      9.677094     -0.581645
  O      -2.800040      9.488249     -0.209433
  H      -3.270979     10.319755     -0.112611
  H      -2.365128      9.470385     -5.111606
  O      -2.563872      8.529035     -5.034477
  H      -1.878575      8.203430     -4.428202
  H      -4.075042      8.439963     -3.958919
  O      -4.841246      8.416669     -3.349507
  H      -4.538119      7.908632     -2.581951
  S      -1.765400     11.741072     -4.001313
  H      -1.082932     11.159172     -2.988254
  H      -2.958437     11.524679     -3.405712
21
Coordinates from ORCA-job neb_12_105_CI_MEP.QMRegion E -1845.690312914484
  H      -3.566347      6.371500     -0.480170
  O      -3.338463      7.052388     -1.172803
  H      -3.308703      7.911013     -0.709550
  H      -0.316438      6.888099     -2.263461
  O      -1.090464      7.321266     -2.716884
  H      -1.844577      7.136569     -2.106202
  H      -0.567343      9.000397     -1.951163
  O      -0.432406      9.745933     -1.334292
  H       0.334689      9.457489     -0.795608
  H      -1.853954      9.730712     -0.529500
  O      -2.768248      9.548428     -0.165378
  H      -3.193936     10.388518      0.018910
  H      -2.264084      9.110913     -5.244068
  O      -2.306619      8.147318     -5.162131
  H      -1.662073      7.948156     -4.462206
  H      -3.832250      8.120766     -4.097124
  O      -4.573382      8.298744     -3.477579
  H      -4.319603      7.865738     -2.646376
  S      -2.872426     11.304689     -4.092861
  H      -1.943309     11.089277     -3.138827
  H      -3.723522     10.392438     -3.557436
