24
Coordinates from ORCA-job neb_34_201_CI_MEP.QMRegion E -1917.020321384060
  H      -5.763507     -3.167901      1.350784
  O      -6.260384     -3.701586      2.020117
  H      -6.020175     -3.273991      2.868745
  H      -9.030255     -1.719048     -2.309581
  O      -8.543238     -1.549434     -1.477035
  H      -8.659551     -2.301589     -0.862026
  H      -7.917568     -3.669745      0.970877
  O      -8.637827     -3.650512      0.314219
  H      -8.433784     -4.382291     -0.304777
  H      -6.838394     -5.231267     -1.383840
  O      -7.763066     -5.500802     -1.609328
  H      -7.880215     -5.093833     -2.497568
  H      -7.025195     -3.420584     -3.474242
  O      -7.641172     -4.030760     -3.937409
  H      -7.090071     -4.477382     -4.619862
  H      -8.884608     -2.596953     -4.318385
  O      -9.418329     -1.822657     -4.061789
  H      -9.075477     -1.087389     -4.584823
  H      -7.703461     -8.573063     -1.061662
  O      -7.053315     -8.128844     -1.613394
  H      -7.389738     -7.206118     -1.691419
  S     -10.975509     -4.757447      2.651218
  H      -9.886730     -4.866127      3.440942
  H     -10.227415     -4.305135      1.614182
24
Coordinates from ORCA-job neb_34_201_CI_MEP.QMRegion E -1917.018497481583
  H      -5.720126     -3.154326      1.402910
  O      -6.220437     -3.690271      2.065705
  H      -5.989581     -3.263953      2.919807
  H      -9.030201     -1.723397     -2.273683
  O      -8.526847     -1.527898     -1.457205
  H      -8.607593     -2.275228     -0.827510
  H      -7.845598     -3.642389      1.000551
  O      -8.526910     -3.616546      0.303353
  H      -8.294290     -4.343723     -0.308739
  H      -6.787137     -5.242417     -1.377521
  O      -7.710107     -5.516580     -1.613610
  H      -7.816609     -5.096460     -2.497653
  H      -6.994526     -3.397891     -3.443903
  O      -7.607418     -4.014617     -3.907197
  H      -7.058591     -4.454478     -4.594908
  H      -8.913718     -2.680512     -4.245364
  O      -9.501538     -1.942873     -3.992520
  H      -9.254200     -1.208388     -4.565980
  H      -7.633307     -8.595610     -1.133532
  O      -6.971320     -8.128867     -1.651129
  H      -7.310813     -7.204914     -1.712317
  S     -11.620303     -5.066959      1.350375
  H     -10.876113     -4.765962      2.434411
  H     -10.597848     -4.706744      0.547807
24
Coordinates from ORCA-job neb_34_201_CI_MEP.QMRegion E -1917.018149151445
  H      -5.739072     -3.157298      1.373204
  O      -6.229419     -3.694524      2.043736
  H      -5.990424     -3.267970      2.894101
  H      -9.042884     -1.754171     -2.261853
  O      -8.523394     -1.543425     -1.459165
  H      -8.580009     -2.290020     -0.823833
  H      -7.847066     -3.646509      1.013425
  O      -8.513670     -3.614628      0.302284
  H      -8.270541     -4.339905     -0.306402
  H      -6.796867     -5.255020     -1.379315
  O      -7.720280     -5.523881     -1.618259
  H      -7.819408     -5.102538     -2.503549
  H      -6.988912     -3.409958     -3.451271
  O      -7.595293     -4.037349     -3.907913
  H      -7.045182     -4.471308     -4.600211
  H      -8.944903     -2.746892     -4.208330
  O      -9.546645     -2.019201     -3.958537
  H      -9.324665     -1.290795     -4.549368
  H      -7.611924     -8.606264     -1.204114
  O      -6.949556     -8.119661     -1.702502
  H      -7.303757     -7.199936     -1.748588
  S     -11.813985     -5.275703      0.437717
  H     -11.590371     -4.331852      1.373565
  H     -10.597619     -5.056084     -0.096965
24
Coordinates from ORCA-job neb_34_201_CI_MEP.QMRegion E -1917.017711752123
  H      -5.741247     -3.157915      1.380201
  O      -6.232502     -3.695428      2.049116
  H      -5.995371     -3.268831      2.900160
  H      -9.055926     -1.765676     -2.274483
  O      -8.536002     -1.542097     -1.475439
  H      -8.581933     -2.287417     -0.836898
  H      -7.849175     -3.640921      1.000807
  O      -8.507930     -3.607372      0.282867
  H      -8.265329     -4.336259     -0.320482
  H      -6.795374     -5.258699     -1.390200
  O      -7.715727     -5.532567     -1.635262
  H      -7.815456     -5.105474     -2.518025
  H      -6.997945     -3.402997     -3.460797
  O      -7.601490     -4.034195     -3.915741
  H      -7.049947     -4.467898     -4.607110
  H      -8.991154     -2.800295     -4.198516
  O      -9.612300     -2.090027     -3.944300
  H      -9.440143     -1.369854     -4.560614
  H      -7.598754     -8.626262     -1.274585
  O      -6.922673     -8.122616     -1.735957
  H      -7.284479     -7.205867     -1.779322
  S     -11.869343     -5.366863     -0.132439
  H     -11.932335     -4.069509      0.223561
  H     -10.542900     -5.260325     -0.335603
24
Coordinates from ORCA-job neb_34_201_CI_MEP.QMRegion E -1917.017663360151
  H      -5.749855     -3.157830      1.381907
  O      -6.239542     -3.696867      2.050267
  H      -6.003671     -3.269920      2.901378
  H      -9.059656     -1.778666     -2.278460
  O      -8.537241     -1.543101     -1.484698
  H      -8.576377     -2.284112     -0.839288
  H      -7.853753     -3.633720      0.996320
  O      -8.503835     -3.598765      0.271081
  H      -8.261230     -4.332396     -0.326184
  H      -6.795164     -5.259850     -1.383834
  O      -7.715627     -5.534308     -1.628799
  H      -7.813487     -5.108563     -2.512362
  H      -6.993215     -3.404864     -3.456703
  O      -7.594420     -4.040783     -3.908791
  H      -7.043327     -4.472199     -4.602376
  H      -9.010582     -2.848980     -4.176322
  O      -9.648633     -2.152145     -3.923845
  H      -9.497599     -1.434107     -4.548033
  H      -7.588005     -8.637738     -1.327741
  O      -6.906523     -8.114866     -1.758549
  H      -7.277108     -7.200904     -1.787039
  S     -11.864683     -5.400309     -0.640248
  H     -11.969198     -4.113546     -1.032758
  H     -10.524245     -5.310271     -0.529832
24
Coordinates from ORCA-job neb_34_201_CI_MEP.QMRegion E -1917.017862836538
  H      -5.712723     -3.160140      1.358387
  O      -6.212183     -3.692771      2.026947
  H      -5.979815     -3.264644      2.877549
  H      -9.071980     -1.782440     -2.304948
  O      -8.547780     -1.539713     -1.517017
  H      -8.579744     -2.277459     -0.866888
  H      -7.805844     -3.612461      0.967948
  O      -8.471324     -3.575968      0.256487
  H      -8.261245     -4.324779     -0.329742
  H      -6.792395     -5.255586     -1.429495
  O      -7.703297     -5.542021     -1.693803
  H      -7.797800     -5.109450     -2.574081
  H      -7.005746     -3.396861     -3.502862
  O      -7.609817     -4.026737     -3.957916
  H      -7.058953     -4.465679     -4.647873
  H      -9.033403     -2.899689     -4.205333
  O      -9.713513     -2.246501     -3.941214
  H      -9.673973     -1.555342     -4.610391
  H      -7.570590     -8.644721     -1.400294
  O      -6.872922     -8.122575     -1.805225
  H      -7.244287     -7.210080     -1.852247
  S     -11.779516     -5.303065     -1.413679
  H     -11.692036     -4.161308     -2.125829
  H     -10.454591     -5.313902     -1.166262
24
Coordinates from ORCA-job neb_34_201_CI_MEP.QMRegion E -1917.019405093718
  H      -5.718328     -3.157107      1.348468
  O      -6.215280     -3.690101      2.018815
  H      -5.981504     -3.259529      2.867546
  H      -9.095841     -1.800795     -2.304296
  O      -8.554694     -1.546211     -1.533843
  H      -8.581632     -2.278185     -0.875638
  H      -7.803538     -3.621387      0.939989
  O      -8.477917     -3.573185      0.238252
  H      -8.297323     -4.329815     -0.347234
  H      -6.794038     -5.250954     -1.432110
  O      -7.698645     -5.542281     -1.712482
  H      -7.779712     -5.111546     -2.594864
  H      -7.004277     -3.390574     -3.511831
  O      -7.607259     -4.020970     -3.968173
  H      -7.056320     -4.461104     -4.658234
  H      -9.051561     -2.956651     -4.192959
  O      -9.771465     -2.349234     -3.918809
  H      -9.814609     -1.674376     -4.603823
  H      -7.552321     -8.649420     -1.460512
  O      -6.849162     -8.111276     -1.833327
  H      -7.228873     -7.201701     -1.873120
  S     -11.512509     -5.191508     -2.446526
  H     -11.171202     -4.092985     -3.152749
  H     -10.293933     -5.266827     -1.875767
