24
Coordinates from ORCA-job neb_34_317_CI_MEP.QMRegion E -1917.019577624450
  H      -4.646501      0.649783      2.262801
  O      -4.975206     -0.286530      2.276136
  H      -4.428048     -0.744257      1.623957
  H      -4.339660     -2.628099      4.347535
  O      -5.227745     -2.285019      4.106834
  H      -5.047521     -1.458599      3.609440
  H      -5.846039     -3.204657      1.384006
  O      -6.328679     -3.763307      2.045483
  H      -6.080613     -3.346047      2.895484
  H      -6.357367     -0.058999      1.087504
  O      -6.654025     -0.153139      0.167522
  H      -7.600096     -0.324399      0.169806
  H      -5.344205     -3.134295     -0.545583
  O      -5.129609     -2.413441      0.080337
  H      -5.692324     -1.647312     -0.163313
  H      -9.038288     -1.740217     -2.282102
  O      -8.526874     -1.543337     -1.463964
  H      -8.610884     -2.311782     -0.859420
  H      -7.884000     -3.736099      0.933413
  O      -8.583734     -3.672261      0.253055
  H      -8.419184     -4.426278     -0.355516
  S     -10.982070     -4.485470      2.538610
  H      -9.904278     -4.839977      3.270140
  H     -10.199068     -4.146852      1.483807
24
Coordinates from ORCA-job neb_34_317_CI_MEP.QMRegion E -1917.018991093068
  H      -4.603313      0.596812      2.202981
  O      -4.918486     -0.342242      2.200592
  H      -4.373399     -0.790558      1.540163
  H      -4.347081     -2.669913      4.334372
  O      -5.232368     -2.322460      4.091361
  H      -5.040547     -1.514291      3.571834
  H      -5.853857     -3.234792      1.368541
  O      -6.343515     -3.803077      2.016013
  H      -6.118207     -3.394986      2.876409
  H      -6.318763     -0.137852      1.039219
  O      -6.635729     -0.226464      0.124506
  H      -7.573451     -0.435434      0.142152
  H      -5.317295     -3.193378     -0.543657
  O      -5.111810     -2.458182      0.070023
  H      -5.673509     -1.698250     -0.198784
  H      -9.044583     -1.764762     -2.278297
  O      -8.532868     -1.577928     -1.457723
  H      -8.598047     -2.364453     -0.873111
  H      -7.889166     -3.766862      0.934887
  O      -8.592533     -3.694195      0.256622
  H      -8.447550     -4.452951     -0.347337
  S     -10.467078     -3.111443      3.048709
  H     -10.176618     -4.427475      3.111700
  H     -10.046937     -3.059766      1.766166
24
Coordinates from ORCA-job neb_34_317_CI_MEP.QMRegion E -1917.017973035184
  H      -4.611295      0.614088      2.215708
  O      -4.931248     -0.323885      2.216273
  H      -4.388544     -0.774202      1.554699
  H      -4.339796     -2.650169      4.338253
  O      -5.225225     -2.301802      4.096415
  H      -5.036046     -1.489334      3.582587
  H      -5.844013     -3.214407      1.376593
  O      -6.329413     -3.782632      2.026580
  H      -6.102820     -3.373474      2.885470
  H      -6.327196     -0.101189      1.058202
  O      -6.646089     -0.185494      0.144314
  H      -7.589396     -0.370562      0.161743
  H      -5.333751     -3.169879     -0.548002
  O      -5.121168     -2.434860      0.063954
  H      -5.686464     -1.676496     -0.195350
  H      -9.048364     -1.754785     -2.269562
  O      -8.534413     -1.561816     -1.452991
  H      -8.599565     -2.343217     -0.859245
  H      -7.879910     -3.751947      0.942428
  O      -8.587604     -3.675578      0.271293
  H      -8.441548     -4.428780     -0.338639
  S     -10.316969     -2.890937      3.211545
  H     -10.318746     -4.171705      2.789515
  H      -9.790671     -2.488799      2.037763
24
Coordinates from ORCA-job neb_34_317_CI_MEP.QMRegion E -1917.017866029053
  H      -4.611770      0.613977      2.213411
  O      -4.933967     -0.323396      2.214114
  H      -4.391056     -0.775877      1.554075
  H      -4.338846     -2.651225      4.337794
  O      -5.223631     -2.301809      4.094403
  H      -5.032394     -1.490230      3.579955
  H      -5.859618     -3.217657      1.374379
  O      -6.341251     -3.785120      2.027336
  H      -6.101464     -3.380942      2.884808
  H      -6.326537     -0.101080      1.050919
  O      -6.644084     -0.188179      0.136774
  H      -7.586739     -0.376386      0.150699
  H      -5.329646     -3.176086     -0.545485
  O      -5.121450     -2.438995      0.066000
  H      -5.683303     -1.681073     -0.200942
  H      -9.046777     -1.758195     -2.268344
  O      -8.533107     -1.571642     -1.449934
  H      -8.615692     -2.351645     -0.856594
  H      -7.925249     -3.775881      0.940922
  O      -8.630216     -3.703249      0.268045
  H      -8.460405     -4.445625     -0.349933
  S     -10.249901     -2.843954      3.269731
  H     -10.388283     -3.846541      2.379257
  H      -9.408385     -2.198111      2.437863
24
Coordinates from ORCA-job neb_34_317_CI_MEP.QMRegion E -1917.018184632806
  H      -4.595916      0.625942      2.201903
  O      -4.910932     -0.314728      2.194692
  H      -4.369542     -0.754796      1.525101
  H      -4.320133     -2.623815      4.330140
  O      -5.202051     -2.268991      4.083685
  H      -5.004248     -1.460710      3.565244
  H      -5.836934     -3.189167      1.352222
  O      -6.313914     -3.744072      2.019806
  H      -6.048513     -3.335387      2.868836
  H      -6.305225     -0.068802      1.044927
  O      -6.635994     -0.156951      0.135654
  H      -7.583720     -0.313288      0.163382
  H      -5.333363     -3.148736     -0.574252
  O      -5.119297     -2.414619      0.037229
  H      -5.682376     -1.654390     -0.220689
  H      -9.039443     -1.737675     -2.280814
  O      -8.525884     -1.544573     -1.463708
  H      -8.609306     -2.318103     -0.862490
  H      -7.904735     -3.742755      0.911888
  O      -8.611243     -3.672748      0.241723
  H      -8.448524     -4.422204     -0.370284
  S     -10.145867     -2.555948      3.147636
  H     -10.310128     -3.398750      2.108358
  H      -8.941779     -2.178146      2.672121
24
Coordinates from ORCA-job neb_34_317_CI_MEP.QMRegion E -1917.018812712410
  H      -4.575158      0.633069      2.189132
  O      -4.878446     -0.311728      2.173167
  H      -4.344788     -0.734331      1.486450
  H      -4.298814     -2.597687      4.323079
  O      -5.177767     -2.238158      4.072603
  H      -4.972786     -1.434861      3.547517
  H      -5.811169     -3.159663      1.328082
  O      -6.277138     -3.701918      2.014694
  H      -5.979468     -3.287574      2.852188
  H      -6.290905     -0.036510      1.052014
  O      -6.644958     -0.123413      0.151803
  H      -7.595448     -0.253159      0.211239
  H      -5.344370     -3.107343     -0.610507
  O      -5.122989     -2.382294      0.006590
  H      -5.694193     -1.620191     -0.229188
  H      -9.030239     -1.721868     -2.296587
  O      -8.518057     -1.519549     -1.480896
  H      -8.596830     -2.286442     -0.871632
  H      -7.870908     -3.711003      0.876141
  O      -8.581747     -3.644764      0.212202
  H      -8.432077     -4.402657     -0.393107
  S      -9.863270     -2.021526      2.898876
  H     -10.134924     -2.876978      1.892241
  H      -8.538427     -2.232380      2.744919
24
Coordinates from ORCA-job neb_34_317_CI_MEP.QMRegion E -1917.022658040978
  H      -4.580965      0.623917      2.212483
  O      -4.881987     -0.320734      2.199571
  H      -4.363629     -0.740921      1.499865
  H      -4.307154     -2.628422      4.324869
  O      -5.188980     -2.275200      4.073558
  H      -4.988439     -1.468907      3.550379
  H      -5.843620     -3.184770      1.315938
  O      -6.285141     -3.729086      2.019357
  H      -5.950306     -3.321792      2.847192
  H      -6.287486     -0.016266      1.073685
  O      -6.698413     -0.117677      0.199403
  H      -7.630841     -0.289782      0.377242
  H      -5.387777     -3.059126     -0.631224
  O      -5.171727     -2.361675      0.015662
  H      -5.765509     -1.598687     -0.173402
  H      -9.040314     -1.748587     -2.293169
  O      -8.529217     -1.545594     -1.477816
  H      -8.606977     -2.314493     -0.874648
  H      -7.914378     -3.780051      0.878162
  O      -8.630763     -3.701055      0.224127
  H      -8.476159     -4.443195     -0.400146
  S      -9.115280     -1.210946      2.469179
  H      -9.703744     -2.067451      1.609831
  H      -8.082007     -2.064208      2.653128
