27
Coordinates from ORCA-job neb_178_208_CI_MEP.QMRegion E -1988.352627470128
  H      -3.446401      6.333116     -0.483418
  O      -3.309647      6.995562     -1.217002
  H      -3.116796      7.853671     -0.789447
  H      -3.156118      4.894977      1.159518
  O      -3.919235      5.299216      0.693461
  H      -4.316341      5.832845      1.425273
  H      -1.839011      9.659793     -0.768534
  O      -2.625553      9.395566     -0.225791
  H      -3.343293     10.015018     -0.404542
  H      -2.272783      8.738826      1.327803
  O      -2.128256      8.184405      2.121084
  H      -1.370573      7.607815      1.896433
  H      -4.369422      6.479179      3.580681
  O      -4.511467      6.903662      2.713301
  H      -3.671020      7.384786      2.550588
  H      -1.773581      9.030123      3.621899
  O      -1.541145      9.308740      4.532653
  H      -2.393888      9.353686      4.999443
  H      -3.974875      8.680323      6.823931
  O      -4.045913      8.715352      5.864747
  H      -4.101922      7.776782      5.605269
  H      -4.483906      9.059235     -3.122026
  O      -5.077881      8.329717     -2.905513
  H      -4.551110      7.771759     -2.299390
  S      -5.983444      9.479580      0.474030
  H      -6.064774      8.675837     -0.610334
  H      -5.725531      8.454605      1.317260
27
Coordinates from ORCA-job neb_178_208_CI_MEP.QMRegion E -1988.352302171798
  H      -3.454460      6.329240     -0.503413
  O      -3.320462      6.989352     -1.237731
  H      -3.128032      7.849622     -0.816308
  H      -3.171953      4.873748      1.134115
  O      -3.929664      5.283158      0.667146
  H      -4.335573      5.807459      1.401072
  H      -1.812294      9.635906     -0.771884
  O      -2.601700      9.374755     -0.229402
  H      -3.274926     10.061357     -0.319092
  H      -2.256812      8.699072      1.304420
  O      -2.130869      8.142207      2.101125
  H      -1.370152      7.564793      1.886205
  H      -4.377984      6.432852      3.567730
  O      -4.507431      6.864642      2.702384
  H      -3.647677      7.311552      2.541734
  H      -1.791120      8.985802      3.599739
  O      -1.568667      9.282685      4.507956
  H      -2.424125      9.310260      4.972057
  H      -4.020690      8.666860      6.789396
  O      -4.071455      8.685370      5.828509
  H      -4.121697      7.741514      5.582716
  H      -4.465064      9.059483     -3.164083
  O      -5.073391      8.341794     -2.950908
  H      -4.572514      7.784328     -2.325787
  S      -5.715707     10.046595      0.812331
  H      -6.037225      8.970688      0.061756
  H      -5.391502      9.266859      1.866029
27
Coordinates from ORCA-job neb_178_208_CI_MEP.QMRegion E -1988.352087837735
  H      -3.450014      6.351027     -0.497695
  O      -3.320151      7.009088     -1.233824
  H      -3.130239      7.870164     -0.813351
  H      -3.170548      4.886412      1.139686
  O      -3.928232      5.295895      0.672434
  H      -4.335774      5.818959      1.406816
  H      -1.799741      9.644049     -0.755299
  O      -2.586298      9.381680     -0.209556
  H      -3.241574     10.090479     -0.253815
  H      -2.245387      8.692226      1.307605
  O      -2.128804      8.135998      2.107160
  H      -1.364753      7.560475      1.898754
  H      -4.376501      6.442093      3.569053
  O      -4.514049      6.877609      2.707337
  H      -3.653715      7.319657      2.538063
  H      -1.791996      8.975655      3.604219
  O      -1.573927      9.281597      4.511005
  H      -2.429768      9.302854      4.974937
  H      -4.036317      8.667230      6.787157
  O      -4.081536      8.682171      5.825894
  H      -4.123796      7.736877      5.583029
  H      -4.447649      9.083034     -3.159640
  O      -5.071432      8.375706     -2.953550
  H      -4.590363      7.819702     -2.312604
  S      -5.529284     10.319098      1.023418
  H      -5.941145      9.136614      0.520358
  H      -5.087801      9.727920      2.154451
27
Coordinates from ORCA-job neb_178_208_CI_MEP.QMRegion E -1988.352181741457
  H      -3.446694      6.375508     -0.490418
  O      -3.319029      7.031160     -1.228204
  H      -3.125865      7.891726     -0.809157
  H      -3.171221      4.903006      1.143809
  O      -3.930852      5.310330      0.677734
  H      -4.335654      5.837030      1.410812
  H      -1.793574      9.659689     -0.741155
  O      -2.574403      9.398536     -0.186920
  H      -3.217308     10.120671     -0.190695
  H      -2.235680      8.701210      1.317940
  O      -2.122319      8.146058      2.119577
  H      -1.362091      7.565436      1.911108
  H      -4.375018      6.458487      3.568665
  O      -4.518501      6.900721      2.711570
  H      -3.660406      7.346387      2.542383
  H      -1.789537      8.979419      3.612165
  O      -1.571724      9.285660      4.519435
  H      -2.426865      9.304785      4.984526
  H      -4.044326      8.671395      6.787775
  O      -4.084568      8.685931      5.826233
  H      -4.122932      7.740466      5.583497
  H      -4.433808      9.109794     -3.151594
  O      -5.064379      8.403060     -2.962523
  H      -4.606118      7.856285     -2.298324
  S      -5.343895     10.529643      1.222690
  H      -5.805300      9.292025      0.949368
  H      -4.786893     10.104864      2.373928
27
Coordinates from ORCA-job neb_178_208_CI_MEP.QMRegion E -1988.352054935108
  H      -3.445279      6.378281     -0.481313
  O      -3.315570      7.030168     -1.221994
  H      -3.132324      7.893510     -0.806200
  H      -3.169144      4.911074      1.158753
  O      -3.931015      5.313172      0.691098
  H      -4.338243      5.839319      1.422746
  H      -1.778693      9.654473     -0.733409
  O      -2.561330      9.401159     -0.177544
  H      -3.168980     10.152253     -0.141843
  H      -2.219843      8.691765      1.319666
  O      -2.114469      8.139412      2.124852
  H      -1.356219      7.554721      1.920161
  H      -4.374166      6.465716      3.584145
  O      -4.515512      6.906253      2.725714
  H      -3.654827      7.345590      2.553979
  H      -1.788839      8.972483      3.615267
  O      -1.576772      9.287515      4.521286
  H      -2.432048      9.295946      4.987507
  H      -4.059786      8.692543      6.781675
  O      -4.081741      8.694028      5.819567
  H      -4.126436      7.746477      5.586941
  H      -4.427728      9.113178     -3.147356
  O      -5.057116      8.403527     -2.965277
  H      -4.604197      7.859170     -2.296013
  S      -5.135482     10.715558      1.443896
  H      -5.601475      9.450763      1.381763
  H      -4.401969     10.425105      2.537478
27
Coordinates from ORCA-job neb_178_208_CI_MEP.QMRegion E -1988.352241823170
  H      -3.446856      6.388836     -0.476786
  O      -3.316606      7.037254     -1.219991
  H      -3.143748      7.903427     -0.806943
  H      -3.170734      4.923449      1.171551
  O      -3.931606      5.322661      0.699286
  H      -4.345897      5.846968      1.427571
  H      -1.769314      9.657622     -0.722981
  O      -2.555015      9.406098     -0.170281
  H      -3.126267     10.180568     -0.078435
  H      -2.212407      8.682812      1.319637
  O      -2.111988      8.130330      2.126208
  H      -1.353056      7.544987      1.925293
  H      -4.373393      6.477507      3.591657
  O      -4.521944      6.917889      2.734148
  H      -3.659956      7.350857      2.553709
  H      -1.791965      8.956850      3.614913
  O      -1.588731      9.293582      4.515764
  H      -2.444705      9.283056      4.982026
  H      -4.083469      8.711313      6.760802
  O      -4.091824      8.699617      5.798565
  H      -4.134995      7.749246      5.577684
  H      -4.417829      9.123167     -3.148773
  O      -5.054036      8.418107     -2.970797
  H      -4.611000      7.873431     -2.295776
  S      -4.858245     10.887109      1.717481
  H      -5.314577      9.624710      1.866021
  H      -3.948077     10.721515      2.699751
27
Coordinates from ORCA-job neb_178_208_CI_MEP.QMRegion E -1988.352773404582
  H      -3.470471      6.400355     -0.488669
  O      -3.337236      7.044739     -1.233418
  H      -3.178769      7.913720     -0.823979
  H      -3.198513      4.932926      1.169784
  O      -3.957169      5.331875      0.695379
  H      -4.380803      5.858178      1.415914
  H      -1.788592      9.663145     -0.717481
  O      -2.573109      9.411268     -0.165084
  H      -3.077095     10.212166      0.029843
  H      -2.227543      8.667424      1.311084
  O      -2.131342      8.108866      2.115066
  H      -1.371549      7.525140      1.913195
  H      -4.395223      6.495529      3.574153
  O      -4.563979      6.942951      2.725339
  H      -3.705967      7.372916      2.521034
  H      -1.817610      8.934543      3.590954
  O      -1.628753      9.290295      4.488885
  H      -2.488245      9.262052      4.949797
  H      -4.140667      8.726331      6.704097
  O      -4.132379      8.695292      5.742269
  H      -4.164032      7.739917      5.539547
  H      -4.419129      9.129132     -3.171465
  O      -5.066158      8.431787     -3.002718
  H      -4.647530      7.889147     -2.312110
  S      -4.362875     11.056090      2.166247
  H      -4.761006      9.829752      2.568275
  H      -3.261498     11.005432      2.945659
