60
Coordinates from ORCA-job neb_22_326_CI_MEP.QMRegion E -2773.009966317207
  H      -3.585359      6.397769     -0.507165
  O      -3.407818      7.059232     -1.232007
  H      -3.239885      7.918400     -0.783215
  H      -4.005659      5.817260     -2.561655
  O      -4.280163      4.967578     -2.922384
  H      -4.061015      4.963895     -3.882921
  H      -0.356363      6.836757     -2.301070
  O      -1.123607      7.251360     -2.770152
  H      -1.884233      7.073224     -2.167786
  H      -0.703601      4.479458     -4.126340
  O      -1.460458      5.057875     -4.348667
  H      -1.283815      5.894556     -3.876021
  H       0.678883      3.065805     -2.674774
  O       0.676373      3.413910     -3.596682
  H       0.759624      2.611638     -4.137836
  H      -5.123403      5.669144     -5.603223
  O      -4.484058      4.926074     -5.628236
  H      -3.786679      5.133842     -6.269408
  H      -0.624114      8.838762     -2.179147
  O      -0.472230      9.676072     -1.681248
  H       0.295671      9.467543     -1.113024
  H      -1.828635      9.649608     -0.729933
  O      -2.699886      9.493453     -0.271549
  H      -3.255070     10.256153     -0.450780
  H       2.245045      5.817455     -1.175278
  O       3.182453      5.526669     -1.052440
  H       3.312737      4.845614     -1.738773
  H       3.429616      3.372073     -3.592562
  O       3.284119      4.342306     -3.471954
  H       2.320350      4.385114     -3.617171
  H      -1.545161      6.029126     -7.278198
  O      -2.025359      5.322128     -6.840521
  H      -1.702354      5.315992     -5.877754
  H       0.815625      2.918794     -7.162384
  O       1.758449      2.628253     -7.205681
  H       1.759517      1.844446     -7.797040
  H      -2.117334     10.531005     -2.949391
  O      -3.054329     10.681325     -3.135069
  H      -3.061966     11.387548     -3.788405
  H       3.506547      2.849358     -6.623427
  O       4.351282      2.579251     -6.228460
  H       4.099959      2.258461     -5.334597
  H       3.779619      7.134020     -1.389184
  O       3.919000      8.102049     -1.499166
  H       4.118289      8.185920     -2.437488
  H      -1.370130      3.684424     -7.038909
  O      -0.848267      2.904167     -6.757913
  H      -1.111720      2.119514     -7.297717
  H       4.075219      5.997181     -4.041393
  O       4.479119      6.864949     -4.224737
  H       5.417237      6.658861     -4.298819
  H      -5.960956      7.334219     -4.247321
  O      -6.389503      6.671238     -4.827694
  H      -6.684153      5.951223     -4.212341
  H      -4.468590      9.145349     -3.288703
  O      -5.106073      8.443302     -3.094130
  H      -4.700498      7.961259     -2.354320
  S       1.516462      6.402854     -6.161861
  H       2.093294      5.346450     -6.772387
  H       2.711247      6.937053     -5.824852
60
Coordinates from ORCA-job neb_22_326_CI_MEP.QMRegion E -2773.007431294287
  H      -3.596942      6.401114     -0.497355
  O      -3.424488      7.068983     -1.218045
  H      -3.277808      7.926933     -0.764146
  H      -4.016824      5.821083     -2.551264
  O      -4.284518      4.968935     -2.910621
  H      -4.071855      4.968148     -3.873224
  H      -0.372679      6.836516     -2.287493
  O      -1.142485      7.254747     -2.747768
  H      -1.900688      7.073479     -2.142792
  H      -0.749898      4.475345     -4.121460
  O      -1.492264      5.067221     -4.350636
  H      -1.301663      5.904219     -3.884930
  H       0.654053      3.054544     -2.667457
  O       0.650624      3.407684     -3.588854
  H       0.748566      2.608648     -4.133943
  H      -5.146938      5.674460     -5.585593
  O      -4.510225      4.928881     -5.610243
  H      -3.815439      5.127674     -6.258717
  H      -0.649718      8.829444     -2.134954
  O      -0.491917      9.666079     -1.636242
  H       0.282314      9.454709     -1.076873
  H      -1.840024      9.666503     -0.688046
  O      -2.716263      9.505933     -0.238546
  H      -3.230325     10.314573     -0.293620
  H       2.235610      5.796259     -1.175045
  O       3.166478      5.489748     -1.040285
  H       3.297734      4.811666     -1.728689
  H       3.422183      3.372417     -3.613314
  O       3.229608      4.332500     -3.481680
  H       2.255183      4.307882     -3.559569
  H      -1.677057      6.047080     -7.287155
  O      -2.098002      5.305191     -6.846434
  H      -1.756590      5.316212     -5.892663
  H       0.815814      2.926332     -7.170334
  O       1.753066      2.622187     -7.196803
  H       1.753652      1.838662     -7.788390
  H      -2.142799     10.477255     -2.931499
  O      -3.058572     10.646850     -3.190310
  H      -2.991339     11.263906     -3.925346
  H       3.513881      2.859955     -6.624806
  O       4.353175      2.574845     -6.228820
  H       4.096278      2.249642     -5.338574
  H       3.777538      7.100387     -1.340717
  O       3.928522      8.062757     -1.475132
  H       4.187417      8.100276     -2.403548
  H      -1.400880      3.677700     -7.048514
  O      -0.864741      2.910363     -6.762111
  H      -1.117705      2.118887     -7.297331
  H       4.088821      6.013270     -4.007501
  O       4.630720      6.817000     -4.084490
  H       5.528996      6.476636     -4.000084
  H      -5.961995      7.347056     -4.235743
  O      -6.392645      6.682493     -4.813544
  H      -6.686901      5.962446     -4.198258
  H      -4.481446      9.156017     -3.271065
  O      -5.123748      8.455991     -3.080993
  H      -4.722166      7.969933     -2.342241
  S       0.842658      7.152100     -6.455816
  H       1.784683      6.198920     -6.597932
  H       1.714402      8.036816     -5.934386
60
Coordinates from ORCA-job neb_22_326_CI_MEP.QMRegion E -2773.008536808780
  H      -3.605254      6.414164     -0.498772
  O      -3.437308      7.084580     -1.217964
  H      -3.293505      7.942487     -0.762912
  H      -4.026821      5.832105     -2.557381
  O      -4.284262      4.977008     -2.916905
  H      -4.077593      4.981419     -3.880940
  H      -0.383166      6.850471     -2.269114
  O      -1.147256      7.270419     -2.738133
  H      -1.912320      7.095665     -2.138933
  H      -0.752550      4.488049     -4.104207
  O      -1.485180      5.086476     -4.346200
  H      -1.314171      5.916507     -3.861298
  H       0.648738      3.058449     -2.665873
  O       0.642777      3.416154     -3.585936
  H       0.741099      2.620259     -4.135819
  H      -5.155307      5.686773     -5.590547
  O      -4.515004      4.944332     -5.620591
  H      -3.822927      5.154680     -6.268141
  H      -0.657880      8.855225     -2.131303
  O      -0.497799      9.690226     -1.632265
  H       0.275888      9.475189     -1.073747
  H      -1.854274      9.689118     -0.686129
  O      -2.729024      9.522843     -0.237282
  H      -3.246910     10.329386     -0.290823
  H       2.237016      5.804745     -1.174807
  O       3.169227      5.501128     -1.045682
  H       3.298090      4.825296     -1.736386
  H       3.418123      3.379328     -3.620974
  O       3.218888      4.338323     -3.490916
  H       2.243678      4.304183     -3.557007
  H      -1.614906      6.063791     -7.264233
  O      -2.092972      5.339786     -6.849442
  H      -1.761666      5.331136     -5.896469
  H       0.799246      2.931458     -7.172655
  O       1.737014      2.628288     -7.197128
  H       1.740372      1.845859     -7.789912
  H      -2.166484     10.514008     -2.943251
  O      -3.084661     10.677025     -3.196275
  H      -3.026486     11.298441     -3.928753
  H       3.509884      2.869548     -6.631201
  O       4.346956      2.580571     -6.233712
  H       4.087870      2.256290     -5.344144
  H       3.775294      7.116405     -1.351026
  O       3.920755      8.080202     -1.479852
  H       4.171038      8.125717     -2.410251
  H      -1.415116      3.694714     -7.051764
  O      -0.882877      2.922746     -6.768007
  H      -1.136172      2.132745     -7.304557
  H       4.080173      6.023106     -4.011798
  O       4.601000      6.840271     -4.087664
  H       5.508989      6.521462     -4.030591
  H      -5.971873      7.360144     -4.236694
  O      -6.396641      6.689788     -4.811972
  H      -6.689562      5.970420     -4.195686
  H      -4.503027      9.181499     -3.277329
  O      -5.143352      8.480037     -3.085794
  H      -4.741238      7.996084     -2.346484
  S       0.960523      7.282247     -6.874126
  H       1.679195      6.178036     -6.591221
  H       1.398066      7.922788     -5.772905
60
Coordinates from ORCA-job neb_22_326_CI_MEP.QMRegion E -2773.008607579094
  H      -3.637677      6.439646     -0.496797
  O      -3.485772      7.117341     -1.212051
  H      -3.349664      7.972972     -0.751973
  H      -4.049756      5.850002     -2.559737
  O      -4.286839      4.989418     -2.919953
  H      -4.087183      5.002040     -3.885215
  H      -0.409980      6.875440     -2.242028
  O      -1.172374      7.301092     -2.708661
  H      -1.941964      7.129985     -2.114040
  H      -0.783780      4.526935     -4.104094
  O      -1.502966      5.136166     -4.357307
  H      -1.346765      5.953034     -3.846485
  H       0.626714      3.072915     -2.665663
  O       0.610738      3.434841     -3.583705
  H       0.718871      2.643248     -4.137547
  H      -5.183780      5.704657     -5.587709
  O      -4.539274      4.965932     -5.629869
  H      -3.858641      5.186499     -6.285708
  H      -0.691619      8.899153     -2.101711
  O      -0.527909      9.729742     -1.598240
  H       0.249759      9.507507     -1.048439
  H      -1.895221      9.734319     -0.661777
  O      -2.770881      9.556305     -0.219449
  H      -3.276657     10.372321     -0.216804
  H       2.236092      5.817184     -1.172205
  O       3.170091      5.515754     -1.050577
  H       3.292711      4.845120     -1.747506
  H       3.397195      3.389016     -3.624150
  O       3.194029      4.347061     -3.497125
  H       2.218544      4.311838     -3.558158
  H      -1.631287      6.106683     -7.282661
  O      -2.124852      5.386312     -6.874269
  H      -1.801183      5.377005     -5.923475
  H       0.769390      2.941240     -7.176873
  O       1.705724      2.635196     -7.197578
  H       1.711031      1.854010     -7.791285
  H      -2.261016     10.576560     -2.955283
  O      -3.176241     10.730807     -3.222191
  H      -3.113132     11.345303     -3.960128
  H       3.498911      2.880715     -6.636221
  O       4.334145      2.586206     -6.239570
  H       4.074424      2.265363     -5.349054
  H       3.767030      7.136675     -1.360853
  O       3.909216      8.101944     -1.482242
  H       4.137986      8.158355     -2.417554
  H      -1.457350      3.713578     -7.066934
  O      -0.924011      2.943852     -6.780245
  H      -1.170939      2.151680     -7.315163
  H       4.045879      6.058538     -4.025631
  O       4.570755      6.873608     -4.087961
  H       5.476664      6.551071     -4.021680
  H      -5.998979      7.384416     -4.225899
  O      -6.406325      6.702056     -4.800193
  H      -6.698439      5.982403     -4.183979
  H      -4.585239      9.236797     -3.272900
  O      -5.218551      8.529737     -3.077809
  H      -4.810042      8.048738     -2.340900
  S       0.690875      7.547545     -7.032892
  H       1.384623      6.476158     -6.597713
  H       0.694606      8.111572     -5.807411
60
Coordinates from ORCA-job neb_22_326_CI_MEP.QMRegion E -2773.009219151935
  H      -3.642534      6.441786     -0.493621
  O      -3.494333      7.124470     -1.205238
  H      -3.367492      7.977216     -0.739514
  H      -4.052399      5.851776     -2.559553
  O      -4.285808      4.989607     -2.917843
  H      -4.090317      5.001713     -3.884466
  H      -0.413147      6.884272     -2.233986
  O      -1.176529      7.310792     -2.699031
  H      -1.945855      7.139669     -2.104088
  H      -0.779154      4.532180     -4.103217
  O      -1.491503      5.147304     -4.362387
  H      -1.345466      5.956480     -3.837152
  H       0.625966      3.070977     -2.665232
  O       0.608197      3.433363     -3.583012
  H       0.717549      2.642437     -4.137584
  H      -5.187785      5.701778     -5.582336
  O      -4.543426      4.962803     -5.622054
  H      -3.863827      5.177964     -6.281861
  H      -0.698201      8.915890     -2.075562
  O      -0.533314      9.739643     -1.562866
  H       0.247222      9.509360     -1.019605
  H      -1.900036      9.748999     -0.634143
  O      -2.781488      9.567903     -0.203058
  H      -3.263155     10.395492     -0.135028
  H       2.237645      5.814617     -1.171123
  O       3.170580      5.511638     -1.048277
  H       3.293282      4.841311     -1.745946
  H       3.396589      3.384395     -3.618710
  O       3.195540      4.342748     -3.490029
  H       2.220523      4.310745     -3.555953
  H      -1.686027      6.114843     -7.289695
  O      -2.149969      5.373475     -6.880340
  H      -1.818689      5.372970     -5.933885
  H       0.772090      2.941443     -7.178069
  O       1.706497      2.630846     -7.196087
  H       1.710205      1.849580     -7.789706
  H      -2.325025     10.596555     -2.941732
  O      -3.230876     10.736556     -3.244382
  H      -3.148622     11.344179     -3.986090
  H       3.500890      2.880019     -6.635683
  O       4.335754      2.583840     -6.239473
  H       4.075922      2.263775     -5.348788
  H       3.768924      7.132999     -1.356214
  O       3.911133      8.098301     -1.476863
  H       4.150811      8.153639     -2.409541
  H      -1.464258      3.707316     -7.071993
  O      -0.926901      2.942457     -6.781120
  H      -1.169836      2.147612     -7.314215
  H       4.064361      6.058331     -4.020852
  O       4.617821      6.855437     -4.058311
  H       5.508994      6.501585     -3.957585
  H      -6.006461      7.382753     -4.219284
  O      -6.407835      6.699832     -4.797441
  H      -6.701234      5.978751     -4.183188
  H      -4.626198      9.245145     -3.260435
  O      -5.249457      8.529333     -3.064822
  H      -4.833533      8.052253     -2.329743
  S       0.285262      7.822802     -7.035487
  H       1.046463      6.851564     -6.491456
  H      -0.043704      8.311744     -5.822003
60
Coordinates from ORCA-job neb_22_326_CI_MEP.QMRegion E -2773.009839700708
  H      -3.626660      6.431074     -0.486836
  O      -3.467724      7.122348     -1.189212
  H      -3.364158      7.969184     -0.711550
  H      -4.051406      5.846926     -2.556877
  O      -4.288106      4.984253     -2.909681
  H      -4.100784      4.992189     -3.879366
  H      -0.403657      6.888110     -2.246670
  O      -1.170315      7.311186     -2.709789
  H      -1.933420      7.141713     -2.106748
  H      -0.773289      4.520017     -4.108170
  O      -1.485122      5.136163     -4.368642
  H      -1.343005      5.942981     -3.839227
  H       0.629328      3.067764     -2.667498
  O       0.611759      3.428660     -3.585600
  H       0.720381      2.636889     -4.139198
  H      -5.197184      5.679939     -5.577244
  O      -4.548559      4.943477     -5.598172
  H      -3.866296      5.139101     -6.263698
  H      -0.694065      8.930095     -2.062984
  O      -0.528868      9.739134     -1.529233
  H       0.253539      9.494234     -0.993584
  H      -1.882618      9.756447     -0.600857
  O      -2.776164      9.586718     -0.186623
  H      -3.200897     10.428863     -0.007596
  H       2.237009      5.808741     -1.171579
  O       3.168928      5.504471     -1.046174
  H       3.293871      4.835510     -1.745398
  H       3.399564      3.377860     -3.612042
  O       3.206790      4.338124     -3.483662
  H       2.232918      4.315931     -3.559840
  H      -1.817381      6.110468     -7.281534
  O      -2.196332      5.318263     -6.879069
  H      -1.848490      5.332247     -5.938679
  H       0.783326      2.941009     -7.178219
  O       1.715606      2.625122     -7.194379
  H       1.716374      1.844164     -7.788352
  H      -2.414055     10.627168     -2.880345
  O      -3.277418     10.727984     -3.299023
  H      -3.116987     11.295240     -4.059414
  H       3.504290      2.876284     -6.635132
  O       4.339284      2.580052     -6.238794
  H       4.079200      2.260598     -5.348095
  H       3.770937      7.122824     -1.351197
  O       3.916058      8.087989     -1.470733
  H       4.189966      8.139809     -2.394083
  H      -1.463330      3.684190     -7.078504
  O      -0.917916      2.929779     -6.778245
  H      -1.153996      2.129422     -7.307475
  H       4.127985      6.051496     -4.019040
  O       4.722752      6.818479     -4.013608
  H       5.587621      6.415847     -3.870969
  H      -5.990466      7.351978     -4.240742
  O      -6.415098      6.680001     -4.814819
  H      -6.709983      5.962223     -4.196385
  H      -4.585105      9.211873     -3.295103
  O      -5.170113      8.461095     -3.113083
  H      -4.752735      8.010469     -2.362120
  S      -0.375261      8.198117     -6.851358
  H       0.428812      7.419887     -6.099263
  H      -1.090799      8.575513     -5.771964
60
Coordinates from ORCA-job neb_22_326_CI_MEP.QMRegion E -2773.015858053089
  H      -3.549927      6.415445     -0.477706
  O      -3.348091      7.110027     -1.167680
  H      -3.265854      7.950652     -0.680150
  H      -3.992963      5.825503     -2.555177
  O      -4.276791      4.978576     -2.907952
  H      -4.083923      4.974910     -3.878102
  H      -0.324746      6.905302     -2.292122
  O      -1.088419      7.325457     -2.767121
  H      -1.845127      7.165612     -2.156341
  H      -0.701318      4.486039     -4.136284
  O      -1.421176      5.104082     -4.375999
  H      -1.252889      5.911025     -3.856497
  H       0.677377      3.065426     -2.685778
  O       0.668922      3.413857     -3.607543
  H       0.764804      2.613061     -4.150468
  H      -5.146510      5.646507     -5.599471
  O      -4.499142      4.912169     -5.579351
  H      -3.787909      5.087878     -6.224690
  H      -0.601393      8.995874     -2.105905
  O      -0.439839      9.774045     -1.532949
  H       0.326481      9.490444     -0.990748
  H      -1.771900      9.765701     -0.612056
  O      -2.678153      9.629468     -0.201761
  H      -2.998112     10.477259      0.116782
  H       2.261845      5.810272     -1.200180
  O       3.197005      5.518706     -1.083443
  H       3.332481      4.864675     -1.795523
  H       3.441163      3.381595     -3.640859
  O       3.284636      4.351632     -3.536332
  H       2.314517      4.362188     -3.625987
  H      -2.001973      6.205362     -7.222533
  O      -2.165704      5.324472     -6.870136
  H      -1.783789      5.338920     -5.941594
  H       0.817513      2.944099     -7.194465
  O       1.744582      2.616956     -7.200825
  H       1.741172      1.835441     -7.794682
  H      -2.679767     10.783484     -2.864690
  O      -3.387833     10.780126     -3.519663
  H      -2.936814     10.539066     -4.345341
  H       3.524953      2.880213     -6.658503
  O       4.354102      2.580754     -6.252142
  H       4.084465      2.265385     -5.363686
  H       3.810946      7.131373     -1.407658
  O       3.950431      8.100807     -1.497670
  H       4.311952      8.180404     -2.387638
  H      -1.424417      3.671725     -7.120198
  O      -0.894546      2.924237     -6.789005
  H      -1.124808      2.117965     -7.313710
  H       4.329789      6.105023     -4.131410
  O       5.000760      6.792886     -4.012044
  H       5.791262      6.278922     -3.803221
  H      -5.952192      7.317119     -4.272328
  O      -6.408850      6.660130     -4.832274
  H      -6.698392      5.944470     -4.207847
  H      -4.419407      9.237307     -3.329403
  O      -4.764685      8.322987     -3.333826
  H      -4.446334      7.939870     -2.499751
  S      -2.292810      8.657737     -5.894939
  H      -1.375804      8.287212     -4.979487
  H      -3.292175      8.144394     -5.136160
