33
Coordinates from ORCA-job neb_8_85_CI_MEP.QMRegion E -2131.018724879586
  H       2.231110      5.834161     -1.184238
  O       3.169679      5.533973     -1.060842
  H       3.289188      4.892676     -1.787629
  H       4.255706      5.579036      0.399038
  O       4.642067      5.646200      1.290155
  H       4.006235      6.254278      1.721964
  H       3.431214      3.405399     -3.610147
  O       3.213503      4.364039     -3.517526
  H       2.235571      4.336345     -3.586542
  H       3.772672      7.182590     -1.408878
  O       3.870317      8.146158     -1.563276
  H       4.014248      8.183835     -2.517865
  H       6.069139      1.820196     -0.470381
  O       6.669570      2.029354     -1.202553
  H       7.464854      1.493038     -0.999121
  H       4.548552      4.009792      1.747205
  O       4.354384      3.083417      2.031937
  H       5.071111      2.514325      1.732262
  H       3.929231      6.061182     -4.174740
  O       4.342139      6.936386     -4.264157
  H       5.243047      6.740740     -4.538723
  H       6.787768      3.288472     -4.546983
  O       6.861631      2.637902     -5.270783
  H       6.018855      2.720392     -5.750656
  H       4.705085      8.804136      0.003389
  O       4.959363      8.939140      0.935711
  H       5.711260      8.344492      1.033005
  H       5.425770      4.360429     -2.917435
  O       6.378097      4.216419     -2.920580
  H       6.516110      3.522215     -2.242141
  S       7.709028      6.510289     -0.298665
  H       6.832366      5.920252      0.542359
  H       7.152212      5.916198     -1.378007
33
Coordinates from ORCA-job neb_8_85_CI_MEP.QMRegion E -2131.017388123228
  H       2.226006      5.818724     -1.174168
  O       3.161546      5.511430     -1.043862
  H       3.283182      4.870570     -1.770567
  H       4.261268      5.571250      0.411880
  O       4.655320      5.659016      1.297457
  H       3.993811      6.237110      1.732475
  H       3.426255      3.400295     -3.606466
  O       3.210170      4.358805     -3.505618
  H       2.231984      4.331380     -3.575848
  H       3.758679      7.164310     -1.377002
  O       3.855030      8.125597     -1.543189
  H       3.957725      8.150115     -2.504761
  H       6.073878      1.813191     -0.463571
  O       6.672581      2.023017     -1.197169
  H       7.467872      1.485090     -0.996763
  H       4.564706      4.003067      1.751892
  O       4.359718      3.078766      2.033806
  H       5.073457      2.504138      1.736960
  H       3.854287      6.099141     -4.158763
  O       4.221651      6.993159     -4.258526
  H       5.138261      6.841433     -4.507612
  H       6.793230      3.274380     -4.563245
  O       6.868170      2.624296     -5.287126
  H       6.023301      2.706066     -5.763378
  H       4.707807      8.782716      0.028534
  O       4.944974      8.930304      0.963875
  H       5.637151      8.279098      1.115230
  H       5.402490      4.326325     -2.937635
  O       6.353085      4.171274     -2.945917
  H       6.492325      3.492602     -2.251310
  S       7.791473      6.806529     -0.983127
  H       7.076089      6.265254      0.024851
  H       7.212257      5.985085     -1.887493
33
Coordinates from ORCA-job neb_8_85_CI_MEP.QMRegion E -2131.016776046229
  H       2.216087      5.810359     -1.181817
  O       3.148402      5.495573     -1.042391
  H       3.272649      4.853493     -1.766840
  H       4.275432      5.572009      0.404828
  O       4.661981      5.675019      1.291668
  H       3.978217      6.231024      1.722003
  H       3.428723      3.403940     -3.620771
  O       3.210796      4.361307     -3.516011
  H       2.232405      4.330788     -3.583155
  H       3.737936      7.155683     -1.360188
  O       3.840841      8.116918     -1.521118
  H       3.940830      8.145377     -2.483454
  H       6.077664      1.817454     -0.472087
  O       6.674221      2.030463     -1.206402
  H       7.471435      1.494466     -1.009696
  H       4.576835      4.007585      1.739629
  O       4.360346      3.085618      2.018998
  H       5.069576      2.503241      1.725971
  H       3.807711      6.129700     -4.151136
  O       4.138963      7.036709     -4.257475
  H       5.065426      6.920009     -4.489240
  H       6.794386      3.275210     -4.579808
  O       6.873360      2.624923     -5.302626
  H       6.031143      2.708527     -5.783258
  H       4.715974      8.762244      0.048563
  O       4.961698      8.903120      0.983038
  H       5.593104      8.196324      1.152713
  H       5.386947      4.314379     -2.961782
  O       6.338248      4.162493     -2.966027
  H       6.480891      3.494913     -2.261575
  S       7.761868      7.004919     -1.502769
  H       7.176332      6.550295     -0.374960
  H       7.267307      5.970155     -2.221521
33
Coordinates from ORCA-job neb_8_85_CI_MEP.QMRegion E -2131.016812818945
  H       2.212044      5.805950     -1.184490
  O       3.145622      5.493156     -1.047355
  H       3.270078      4.852360     -1.773040
  H       4.275539      5.576022      0.397849
  O       4.658293      5.682537      1.285948
  H       3.967348      6.230816      1.715008
  H       3.426393      3.406008     -3.627516
  O       3.209837      4.363788     -3.523843
  H       2.231398      4.334029     -3.589868
  H       3.729562      7.151085     -1.359352
  O       3.844343      8.111792     -1.516706
  H       3.925804      8.141850     -2.481571
  H       6.077467      1.819355     -0.475089
  O       6.675443      2.032632     -1.208006
  H       7.471959      1.495727     -1.010885
  H       4.579703      4.010647      1.733562
  O       4.363067      3.089826      2.015446
  H       5.070380      2.505921      1.720642
  H       3.781453      6.157123     -4.157843
  O       4.089482      7.072484     -4.260731
  H       5.028578      6.982646     -4.450567
  H       6.794307      3.272567     -4.590761
  O       6.873465      2.620856     -5.312050
  H       6.030974      2.704978     -5.792160
  H       4.723906      8.744466      0.053307
  O       4.987243      8.868699      0.985498
  H       5.565616      8.116904      1.153397
  H       5.383304      4.315818     -2.975011
  O       6.331890      4.148102     -2.981587
  H       6.470485      3.487187     -2.270221
  S       7.726586      7.121602     -1.907566
  H       7.163576      6.832810     -0.716045
  H       7.287570      5.952996     -2.431622
33
Coordinates from ORCA-job neb_8_85_CI_MEP.QMRegion E -2131.017093180819
  H       2.208712      5.803006     -1.194590
  O       3.141213      5.486388     -1.057922
  H       3.264154      4.848750     -1.787057
  H       4.261376      5.565225      0.387774
  O       4.646983      5.673232      1.274906
  H       3.956557      6.218868      1.707417
  H       3.412882      3.402147     -3.633961
  O       3.198272      4.360844     -3.531954
  H       2.219392      4.331257     -3.596493
  H       3.726374      7.141809     -1.369815
  O       3.832670      8.099186     -1.550277
  H       3.870816      8.104453     -2.520272
  H       6.067556      1.811248     -0.487123
  O       6.668594      2.022310     -1.217732
  H       7.463030      1.481792     -1.021341
  H       4.572543      3.998620      1.722605
  O       4.356865      3.078638      2.006485
  H       5.063003      2.494298      1.708942
  H       3.736312      6.171254     -4.173835
  O       4.027484      7.091284     -4.280630
  H       4.972043      7.019387     -4.454663
  H       6.786112      3.259413     -4.612390
  O       6.864083      2.609210     -5.334615
  H       6.018634      2.693344     -5.810168
  H       4.726316      8.726583      0.045749
  O       5.003895      8.830075      0.975265
  H       5.541331      8.045961      1.136055
  H       5.371066      4.291762     -2.990844
  O       6.319008      4.121580     -2.999221
  H       6.460152      3.467294     -2.282282
  S       7.665436      7.211859     -2.315524
  H       7.102614      7.098946     -1.095181
  H       7.254789      5.967003     -2.651954
33
Coordinates from ORCA-job neb_8_85_CI_MEP.QMRegion E -2131.018271916571
  H       2.197533      5.795183     -1.204566
  O       3.130188      5.476806     -1.069252
  H       3.251814      4.841028     -1.800357
  H       4.251160      5.559973      0.373627
  O       4.634153      5.672235      1.261558
  H       3.938842      6.212699      1.693176
  H       3.405369      3.402619     -3.645926
  O       3.190042      4.361496     -3.548146
  H       2.210730      4.329302     -3.608838
  H       3.707019      7.132036     -1.377842
  O       3.822214      8.087918     -1.562538
  H       3.835386      8.089214     -2.534406
  H       6.058276      1.809189     -0.499593
  O       6.662988      2.022822     -1.226096
  H       7.456399      1.480897     -1.029962
  H       4.565706      3.994806      1.710127
  O       4.349271      3.076159      1.996685
  H       5.052658      2.489199      1.697221
  H       3.699198      6.191082     -4.187131
  O       3.968984      7.117248     -4.295388
  H       4.922975      7.070321     -4.429235
  H       6.777865      3.258394     -4.628549
  O       6.857700      2.605736     -5.347920
  H       6.012837      2.689642     -5.824944
  H       4.727399      8.701790      0.037744
  O       5.025293      8.781336      0.962742
  H       5.512962      7.961634      1.109365
  H       5.360130      4.287615     -3.012688
  O       6.307954      4.116308     -3.014982
  H       6.446894      3.464936     -2.295557
  S       7.547926      7.269087     -2.692412
  H       6.982758      7.336371     -1.469014
  H       7.222972      5.959703     -2.813834
33
Coordinates from ORCA-job neb_8_85_CI_MEP.QMRegion E -2131.022099748945
  H       2.206896      5.776872     -1.170718
  O       3.134328      5.451231     -1.022118
  H       3.263261      4.813964     -1.752101
  H       4.275173      5.539641      0.417746
  O       4.649485      5.657562      1.308476
  H       3.942960      6.188609      1.733599
  H       3.424496      3.394111     -3.610784
  O       3.208575      4.351066     -3.495584
  H       2.230528      4.318061     -3.568748
  H       3.719927      7.106405     -1.313499
  O       3.845239      8.053834     -1.533176
  H       3.768214      8.020709     -2.506249
  H       6.084974      1.810965     -0.471572
  O       6.682316      2.022882     -1.205165
  H       7.476841      1.481574     -1.010274
  H       4.596059      3.975894      1.746763
  O       4.369880      3.058783      2.026423
  H       5.070056      2.467673      1.727798
  H       3.605179      6.251294     -4.136232
  O       3.818540      7.192299     -4.231529
  H       4.782836      7.195720     -4.359434
  H       6.801298      3.254272     -4.598748
  O       6.874794      2.602150     -5.319961
  H       6.030797      2.690059     -5.796978
  H       4.821740      8.612474      0.075319
  O       5.125503      8.621682      0.999451
  H       5.491170      7.733700      1.117352
  H       5.386607      4.272613     -3.001681
  O       6.338455      4.124082     -2.988538
  H       6.483131      3.479527     -2.263817
  S       7.126071      7.350132     -3.652865
  H       6.569540      7.783045     -2.501807
  H       7.046639      6.055005     -3.261529
