33
Coordinates from ORCA-job neb_13_432_CI_MEP.QMRegion E -2131.021614793020
  H       1.690941      3.383196      6.865663
  O       1.131621      3.957065      6.315216
  H       0.304126      4.098805      6.833650
  H      -1.770476      4.515129      7.607689
  O      -0.852895      4.615957      7.962855
  H      -0.704678      5.578559      8.050360
  H      -0.078044      3.334126      9.042395
  O       0.127120      2.410925      9.292163
  H      -0.693035      2.141760      9.778607
  H       1.902896      1.984213      8.496278
  O       2.670321      2.218184      7.947993
  H       3.126374      1.371663      7.775369
  H       4.481456      1.981829      5.149355
  O       3.543258      2.236232      5.007921
  H       3.114649      2.113984      5.861232
  H       4.189916      4.817245      6.131151
  O       4.229676      5.530621      5.483241
  H       3.630374      5.196002      4.759874
  H      -2.003501      5.270061     10.732514
  O      -2.780801      4.678014     10.880354
  H      -3.007321      4.777753     11.808048
  H       0.207928      5.931389     10.573105
  O      -0.652982      6.371465     10.649921
  H      -0.691976      6.900036      9.834074
  H       0.553915      7.348463      7.645535
  O      -0.367511      7.348482      7.957437
  H      -0.858855      7.287544      7.098791
  H       2.785523      6.589637      6.077443
  O       1.835411      6.664809      6.293822
  H       1.528732      5.738116      6.177277
  S       2.605515      5.472892      9.700264
  H       2.790669      4.212916      9.249132
  H       2.396025      5.952338      8.451399
33
Coordinates from ORCA-job neb_13_432_CI_MEP.QMRegion E -2131.018704976456
  H       1.736482      3.396525      6.855170
  O       1.174789      3.968137      6.303671
  H       0.336773      4.091473      6.808763
  H      -1.759293      4.499231      7.579660
  O      -0.839807      4.599296      7.931214
  H      -0.684447      5.563568      8.003089
  H      -0.086939      3.324269      9.014785
  O       0.123653      2.404288      9.272742
  H      -0.695554      2.135844      9.761514
  H       1.918348      1.986196      8.462461
  O       2.701694      2.227285      7.941453
  H       3.143362      1.377078      7.747724
  H       4.496318      1.990492      5.125075
  O       3.557424      2.242164      4.982425
  H       3.136766      2.144900      5.842365
  H       4.207965      4.870321      6.146234
  O       4.252352      5.562645      5.476640
  H       3.641826      5.221815      4.767748
  H      -2.112866      5.303657     10.728757
  O      -2.844266      4.655281     10.869824
  H      -3.119183      4.757709     11.783634
  H       0.009391      6.107064     10.832574
  O      -0.854959      6.495990     10.647636
  H      -0.745553      6.906622      9.769901
  H       0.609302      7.270516      7.613257
  O      -0.308785      7.287956      7.948124
  H      -0.819224      7.267242      7.097948
  H       2.788291      6.663010      6.126647
  O       1.827089      6.691836      6.284443
  H       1.569202      5.752411      6.159568
  S       2.658593      5.203469     10.167163
  H       2.976955      3.923883      9.875914
  H       2.086799      5.373333      8.958652
33
Coordinates from ORCA-job neb_13_432_CI_MEP.QMRegion E -2131.015700485211
  H       1.734901      3.387891      6.873883
  O       1.168734      3.950842      6.318027
  H       0.331637      4.071186      6.822346
  H      -1.766624      4.484779      7.599310
  O      -0.849949      4.582362      7.959850
  H      -0.687611      5.547552      8.020272
  H      -0.115923      3.312061      9.010545
  O       0.122827      2.402951      9.285843
  H      -0.689742      2.123965      9.778582
  H       1.934467      1.986669      8.504353
  O       2.711069      2.218255      7.969438
  H       3.141260      1.363993      7.768764
  H       4.492788      1.985511      5.137325
  O       3.553022      2.235397      4.997279
  H       3.133900      2.129020      5.856834
  H       4.201044      4.855654      6.171302
  O       4.250766      5.546016      5.500091
  H       3.638785      5.211236      4.791473
  H      -2.132688      5.300335     10.753953
  O      -2.856388      4.645285     10.887965
  H      -3.137198      4.737682     11.801053
  H      -0.049935      6.301176     10.977954
  O      -0.921590      6.554578     10.656771
  H      -0.760268      6.921179      9.766451
  H       0.616231      7.219460      7.626003
  O      -0.303477      7.248518      7.961683
  H      -0.814101      7.247752      7.111365
  H       2.773139      6.661752      6.162602
  O       1.807378      6.685700      6.283683
  H       1.562228      5.741753      6.171458
  S       2.827325      5.133912     10.187651
  H       3.239834      3.889611      9.866345
  H       1.788729      5.038460      9.334539
33
Coordinates from ORCA-job neb_13_432_CI_MEP.QMRegion E -2131.014820201582
  H       1.748425      3.412747      6.871011
  O       1.176662      3.959370      6.305581
  H       0.342390      4.085259      6.811793
  H      -1.764789      4.497577      7.588724
  O      -0.847315      4.588933      7.948005
  H      -0.675905      5.552731      8.016443
  H      -0.147684      3.330888      8.969551
  O       0.123922      2.440343      9.282418
  H      -0.680042      2.150758      9.782002
  H       1.954895      2.009748      8.505193
  O       2.729582      2.229097      7.963079
  H       3.148631      1.369077      7.763528
  H       4.493688      1.988447      5.132919
  O       3.554077      2.237035      4.991174
  H       3.135491      2.140200      5.852138
  H       4.199305      4.871059      6.170256
  O       4.257576      5.554134      5.492423
  H       3.641849      5.219462      4.787085
  H      -2.125061      5.310663     10.747007
  O      -2.844417      4.653762     10.884475
  H      -3.126007      4.751462     11.796795
  H      -0.072966      6.480105     11.026674
  O      -0.939468      6.601726     10.627627
  H      -0.756084      6.949783      9.732689
  H       0.629059      7.209358      7.627869
  O      -0.293013      7.250178      7.958123
  H      -0.801655      7.254226      7.107015
  H       2.774101      6.682135      6.165637
  O       1.807557      6.696939      6.275451
  H       1.572359      5.749636      6.169793
  S       2.877431      5.142499     10.134890
  H       3.422917      3.966137      9.762002
  H       1.651256      4.717598      9.769514
33
Coordinates from ORCA-job neb_13_432_CI_MEP.QMRegion E -2131.015993773802
  H       1.745817      3.412323      6.877133
  O       1.170706      3.951717      6.308765
  H       0.339859      4.080996      6.819777
  H      -1.767525      4.491231      7.594451
  O      -0.851037      4.572398      7.957544
  H      -0.672109      5.534618      8.038854
  H      -0.158253      3.335040      8.958872
  O       0.129079      2.456798      9.300399
  H      -0.676235      2.162154      9.795086
  H       1.962949      2.011785      8.511628
  O       2.735487      2.223833      7.964165
  H       3.150323      1.360929      7.768701
  H       4.491611      1.984105      5.141344
  O       3.552259      2.234196      5.000649
  H       3.132169      2.129909      5.860237
  H       4.192999      4.832165      6.169186
  O       4.253063      5.532040      5.508942
  H       3.638471      5.211560      4.796138
  H      -2.127829      5.306132     10.763266
  O      -2.847905      4.647615     10.893290
  H      -3.131828      4.736633     11.805883
  H      -0.076958      6.482956     11.021652
  O      -0.951813      6.599822     10.639819
  H      -0.778783      6.935683      9.737812
  H       0.618880      7.185573      7.658430
  O      -0.308512      7.228207      7.971014
  H      -0.804455      7.236959      7.112659
  H       2.767254      6.670794      6.175877
  O       1.800569      6.691127      6.278653
  H       1.563089      5.743819      6.178440
  S       2.692882      5.059501     10.198055
  H       3.460732      4.094291      9.652255
  H       1.613052      4.251134     10.164872
33
Coordinates from ORCA-job neb_13_432_CI_MEP.QMRegion E -2131.018413075226
  H       1.731730      3.397729      6.874221
  O       1.160206      3.949067      6.313417
  H       0.330293      4.079050      6.827249
  H      -1.768915      4.485001      7.603752
  O      -0.852599      4.564740      7.967712
  H      -0.679459      5.527300      8.059568
  H      -0.146900      3.331928      8.978885
  O       0.129997      2.447984      9.315477
  H      -0.684042      2.156230      9.799466
  H       1.958764      2.007502      8.508823
  O       2.725862      2.228373      7.957694
  H       3.153498      1.370104      7.769666
  H       4.490711      1.981932      5.145904
  O       3.551708      2.234319      5.005818
  H       3.129022      2.120943      5.863096
  H       4.191664      4.792237      6.159454
  O       4.244672      5.512729      5.521032
  H       3.633773      5.203656      4.799550
  H      -2.115488      5.300797     10.769507
  O      -2.843996      4.646662     10.893860
  H      -3.125265      4.729306     11.807890
  H      -0.006666      6.298349     10.876923
  O      -0.910647      6.556155     10.662371
  H      -0.821816      6.930626      9.764891
  H       0.590930      7.198956      7.681979
  O      -0.340739      7.227884      7.976513
  H      -0.821528      7.226952      7.109118
  H       2.765634      6.653829      6.172622
  O       1.800653      6.687072      6.288856
  H       1.550495      5.743583      6.184629
  S       2.480238      4.897255     10.537477
  H       3.267978      4.393196      9.566123
  H       1.640391      3.843223     10.447492
33
Coordinates from ORCA-job neb_13_432_CI_MEP.QMRegion E -2131.021617098326
  H       1.722732      3.385623      6.850302
  O       1.153177      3.952740      6.301962
  H       0.322641      4.077020      6.816810
  H      -1.766806      4.481387      7.607048
  O      -0.847824      4.561914      7.964714
  H      -0.675908      5.525643      8.050815
  H      -0.137550      3.320179      8.990781
  O       0.119537      2.428611      9.322227
  H      -0.710416      2.147077      9.790749
  H       1.944625      1.985265      8.468526
  O       2.701021      2.222092      7.911158
  H       3.146375      1.371415      7.727813
  H       4.490563      1.983145      5.128303
  O       3.552655      2.237423      4.984528
  H       3.126175      2.131299      5.840878
  H       4.193196      4.800397      6.133441
  O       4.247145      5.520232      5.494060
  H       3.638015      5.207146      4.770854
  H      -2.067032      5.270734     10.752448
  O      -2.822880      4.642471     10.880819
  H      -3.079249      4.724312     11.802251
  H       0.073181      5.976204     10.841392
  O      -0.788608      6.403507     10.698068
  H      -0.691663      6.845084      9.836418
  H       0.617456      7.199324      7.644154
  O      -0.304293      7.220793      7.968968
  H      -0.808161      7.227160      7.115443
  H       2.784175      6.632657      6.129156
  O       1.822179      6.676195      6.273099
  H       1.556233      5.737445      6.163684
  S       2.076277      4.590650     11.147441
  H       2.722499      4.666191      9.966125
  H       1.402857      3.484006     10.750727
