33
Coordinates from ORCA-job neb_4_63_CI_MEP.QMRegion E -2131.026304035434
  H       4.397852     -2.491065      5.555114
  O       4.154961     -3.002335      6.354832
  H       4.451444     -3.914166      6.133619
  H       4.939162     -2.174989      3.546467
  O       4.938379     -1.461790      4.224381
  H       4.113997     -0.932978      4.042350
  H       1.992835     -0.816761      5.182689
  O       1.477922     -1.373373      5.798257
  H       1.487639     -0.944224      6.668454
  H       5.688985     -5.368657      4.681176
  O       5.125726     -5.416772      5.483522
  H       4.377032     -5.978354      5.231300
  H       3.861146     -1.088396      7.156506
  O       3.949716     -0.123786      7.190988
  H       4.552787      0.088610      6.467909
  H       6.637612      1.103900      4.682223
  O       6.236303      1.665768      5.377203
  H       6.374629      2.578319      5.021760
  H       7.531083     -0.651826      3.061417
  O       6.866184      0.028069      3.240789
  H       6.113178     -0.523324      3.583481
  H       1.819363      2.286806      8.484985
  O       2.571525      2.305578      7.870261
  H       2.829161      1.376550      7.756416
  H       4.479109      2.059837      5.081318
  O       3.531627      2.264338      4.966368
  H       3.133940      2.288664      5.845331
  H       7.436627     -2.124655      6.512733
  O       7.393256     -2.923812      5.957339
  H       6.516342     -3.286538      6.129527
  S       7.338699     -0.255444      8.002575
  H       6.014463     -0.358551      8.257397
  H       7.118034      0.706106      7.071418
33
Coordinates from ORCA-job neb_4_63_CI_MEP.QMRegion E -2131.020046893365
  H       4.501294     -2.501739      5.403084
  O       4.319158     -3.027699      6.208098
  H       4.528018     -3.956698      5.940373
  H       4.956107     -2.109458      3.438821
  O       4.982312     -1.399282      4.116863
  H       4.140805     -0.877608      3.990636
  H       2.009653     -0.821658      5.194574
  O       1.494044     -1.382026      5.806655
  H       1.496039     -0.959819      6.680038
  H       5.704959     -5.411925      4.624781
  O       5.133768     -5.476647      5.422102
  H       4.385078     -6.031975      5.158267
  H       4.087978     -0.918833      6.910752
  O       4.093469      0.032007      7.082048
  H       4.819904      0.389926      6.549365
  H       6.552647      1.116218      4.716027
  O       6.118752      1.662817      5.400585
  H       6.270673      2.578261      5.056221
  H       7.588257     -0.521873      3.014363
  O       6.888790      0.111086      3.216507
  H       6.149829     -0.484171      3.527724
  H       1.820285      2.265498      8.496236
  O       2.571582      2.320265      7.883092
  H       2.875420      1.407471      7.758508
  H       4.403460      2.056157      5.055103
  O       3.460536      2.279635      4.934687
  H       3.049278      2.260699      5.806840
  H       7.534466     -2.394760      6.741903
  O       7.373162     -2.965241      5.980576
  H       6.444347     -3.218754      6.093351
  S       6.829974     -0.999024      8.939525
  H       5.501015     -0.784517      8.823436
  H       7.081181     -0.013580      8.055590
33
Coordinates from ORCA-job neb_4_63_CI_MEP.QMRegion E -2131.015174965631
  H       4.560568     -2.538187      5.419264
  O       4.466328     -3.066508      6.238830
  H       4.600294     -4.005143      5.949531
  H       4.938285     -2.126765      3.449513
  O       4.961213     -1.423006      4.134490
  H       4.122152     -0.897219      4.008937
  H       2.010779     -0.835495      5.200741
  O       1.494695     -1.400492      5.808135
  H       1.493461     -0.981407      6.683146
  H       5.700828     -5.453549      4.634654
  O       5.130180     -5.538298      5.429431
  H       4.375079     -6.078700      5.152933
  H       4.138664     -0.922209      6.992495
  O       4.100534      0.034936      7.111934
  H       4.837321      0.397234      6.596420
  H       6.529811      1.098955      4.717250
  O       6.092074      1.649219      5.395653
  H       6.254032      2.564081      5.055882
  H       7.555708     -0.560483      3.019342
  O       6.866082      0.084572      3.219510
  H       6.120860     -0.500548      3.533396
  H       1.806332      2.253925      8.502416
  O       2.560557      2.309605      7.892937
  H       2.877735      1.399691      7.782921
  H       4.387491      2.032851      5.068067
  O       3.446394      2.268132      4.948958
  H       3.031012      2.230081      5.818595
  H       7.709746     -2.511188      6.763550
  O       7.365371     -2.964530      5.991147
  H       6.415914     -3.096480      6.183038
  S       6.599560     -1.000979      9.318884
  H       5.332384     -0.556102      9.189617
  H       6.883473     -0.564616      8.074810
33
Coordinates from ORCA-job neb_4_63_CI_MEP.QMRegion E -2131.014859419924
  H       4.707126     -2.490556      5.496550
  O       4.700733     -3.008759      6.329712
  H       4.735339     -3.954257      6.034756
  H       4.958805     -2.121190      3.472630
  O       4.985003     -1.415328      4.155211
  H       4.145512     -0.891689      4.032494
  H       2.037190     -0.823483      5.223067
  O       1.524578     -1.391185      5.830617
  H       1.511100     -0.964947      6.703087
  H       5.725360     -5.434987      4.666608
  O       5.156474     -5.514689      5.463402
  H       4.399457     -6.052439      5.189051
  H       4.232959     -0.850492      7.104082
  O       4.203054      0.107988      7.210871
  H       4.943348      0.461657      6.693040
  H       6.587592      1.125639      4.773266
  O       6.146787      1.677709      5.447166
  H       6.291459      2.589293      5.092713
  H       7.597109     -0.518976      3.046223
  O       6.895808      0.114365      3.241928
  H       6.161987     -0.478751      3.560950
  H       1.845184      2.280899      8.542245
  O       2.601158      2.357007      7.937713
  H       2.964316      1.461161      7.854640
  H       4.419829      2.034286      5.097800
  O       3.477439      2.264946      4.982142
  H       3.073367      2.224009      5.857131
  H       7.894546     -2.426375      6.712368
  O       7.474696     -2.923379      6.008099
  H       6.526033     -3.013683      6.256247
  S       6.598973     -0.911196      9.571793
  H       5.436002     -0.247100      9.414716
  H       6.710623     -1.035199      8.233802
33
Coordinates from ORCA-job neb_4_63_CI_MEP.QMRegion E -2131.015431252747
  H       4.644982     -2.529148      5.466317
  O       4.630597     -3.052202      6.297791
  H       4.686616     -3.997310      6.000128
  H       4.927054     -2.143267      3.469787
  O       4.943549     -1.443585      4.159801
  H       4.108157     -0.912669      4.028216
  H       2.013581     -0.838817      5.211672
  O       1.503406     -1.410802      5.817613
  H       1.487594     -0.987749      6.691326
  H       5.699364     -5.462592      4.641360
  O       5.131423     -5.544747      5.438444
  H       4.372265     -6.081133      5.165090
  H       4.126999     -0.911249      7.031838
  O       4.104231      0.046824      7.140234
  H       4.862046      0.393021      6.644281
  H       6.518521      1.090511      4.728690
  O       6.073761      1.645896      5.397081
  H       6.243745      2.558618      5.056768
  H       7.532359     -0.594105      3.028200
  O       6.853120      0.063783      3.225785
  H       6.103348     -0.509872      3.543643
  H       1.800249      2.248117      8.512028
  O       2.555331      2.305168      7.903796
  H       2.881070      1.397353      7.800693
  H       4.378934      2.016747      5.082095
  O       3.438862      2.259798      4.962437
  H       3.021198      2.209443      5.830336
  H       7.776837     -2.274238      6.562348
  O       7.429178     -2.942269      5.967825
  H       6.475530     -3.038797      6.184671
  S       6.534224     -0.948357      9.472133
  H       5.444340     -0.176590      9.284085
  H       6.300842     -1.571235      8.301108
33
Coordinates from ORCA-job neb_4_63_CI_MEP.QMRegion E -2131.020444367386
  H       4.604572     -2.558355      5.495642
  O       4.553420     -3.091859      6.318631
  H       4.657210     -4.030281      6.014500
  H       4.926704     -2.155963      3.498102
  O       4.935987     -1.460992      4.193184
  H       4.106421     -0.925654      4.048478
  H       2.017381     -0.835427      5.218019
  O       1.506755     -1.407316      5.823425
  H       1.489178     -0.983718      6.696899
  H       5.711374     -5.473113      4.649118
  O       5.148465     -5.565576      5.449059
  H       4.386396     -6.095706      5.171147
  H       4.109600     -0.917651      7.012921
  O       4.105173      0.039226      7.131988
  H       4.863219      0.372387      6.627476
  H       6.532963      1.084097      4.735158
  O       6.087417      1.643410      5.399821
  H       6.255144      2.554387      5.054922
  H       7.519740     -0.623089      3.039815
  O       6.848673      0.045764      3.232031
  H       6.097512     -0.517449      3.560302
  H       1.809276      2.243916      8.516738
  O       2.562237      2.298675      7.905930
  H       2.885523      1.389947      7.802926
  H       4.388796      2.015886      5.085684
  O       3.448790      2.260347      4.969483
  H       3.035161      2.208627      5.839263
  H       7.678477     -2.185819      6.550682
  O       7.424300     -2.911973      5.972733
  H       6.478178     -3.065469      6.162838
  S       6.636297     -1.175618      9.166614
  H       5.675504     -0.244554      8.984859
  H       5.912317     -2.086469      8.486020
33
Coordinates from ORCA-job neb_4_63_CI_MEP.QMRegion E -2131.022866426069
  H       4.445696     -2.534324      5.652884
  O       4.131534     -3.116313      6.373791
  H       4.470871     -3.996379      6.101560
  H       4.957770     -2.185892      3.588981
  O       4.967755     -1.470273      4.263677
  H       4.150901     -0.936956      4.073429
  H       1.998006     -0.791825      5.159207
  O       1.517973     -1.357999      5.796697
  H       1.500744     -0.925355      6.665414
  H       5.733099     -5.439174      4.647509
  O       5.212802     -5.500069      5.480967
  H       4.439512     -6.037697      5.250481
  H       4.184351     -0.479410      6.840866
  O       4.389412      0.373760      7.236172
  H       5.084464      0.758537      6.666412
  H       6.621016      1.129717      4.774306
  O       6.186518      1.696234      5.442087
  H       6.320990      2.606288      5.078572
  H       7.595747     -0.536637      3.092398
  O       6.876839      0.080392      3.277998
  H       6.162195     -0.522963      3.612960
  H       1.846430      2.276439      8.490663
  O       2.602025      2.427747      7.901227
  H       3.062506      1.576395      7.808775
  H       4.436765      2.062955      5.024286
  O       3.491249      2.275404      4.919917
  H       3.101842      2.258865      5.802330
  H       7.283019     -2.653360      6.847748
  O       7.369344     -3.156557      6.021357
  H       6.655645     -3.802824      6.071265
  S       6.088782     -2.109369      8.979012
  H       5.648181     -0.866695      8.677601
  H       5.111246     -2.662544      8.215095
