39
Coordinates from ORCA-job neb_86_170_CI_MEP.QMRegion E -2273.689816153470
  H       4.200804      5.622032      0.287095
  O       4.541658      5.732002      1.193906
  H       3.838265      6.276838      1.605694
  H       6.373786      1.162584      4.837605
  O       6.054418      1.661521      5.611609
  H       6.222105      2.591920      5.344395
  H       7.620164     -0.007732      3.193057
  O       6.701723      0.279829      3.314087
  H       6.205994     -0.514113      3.645237
  H       7.581533     -2.600006      4.216943
  O       7.659016     -2.647282      3.247558
  H       7.170511     -3.465425      3.045680
  H       5.792671      0.069592      0.345022
  O       5.600803      0.818494      0.945655
  H       6.030499      0.584357      1.803117
  H       9.515711      0.071563     -1.145301
  O       8.793889      0.403016     -0.593052
  H       8.425073     -0.417710     -0.209042
  H       7.958013     -3.039447      0.316256
  O       8.384850     -2.176234      0.515985
  H       8.368754     -2.145438      1.483778
  H       5.462777      3.760293      3.641448
  O       6.107790      4.063749      4.307184
  H       5.616042      4.748763      4.798508
  H       6.155978      1.940510     -0.553413
  O       6.700203      2.196747     -1.314913
  H       7.529072      1.707998     -1.159561
  H       4.490902      4.112754      1.700892
  O       4.367979      3.179327      1.991814
  H       5.095656      2.667524      1.622089
  H       4.657135      8.627369      0.046161
  O       5.005810      8.709956      0.957343
  H       5.447331      7.859343      1.085929
  H       5.180528      4.234320     -3.352230
  O       6.140440      4.274081     -3.240875
  H       6.321222      3.718133     -2.464471
  S       9.925424      0.701809      2.655721
  H       9.434625      1.940251      2.880133
  H       9.649157      0.769577      1.327052
39
Coordinates from ORCA-job neb_86_170_CI_MEP.QMRegion E -2273.687184328116
  H       4.214513      5.597031      0.266103
  O       4.559745      5.710141      1.171426
  H       3.859954      6.256953      1.584651
  H       6.387532      1.151789      4.827387
  O       6.060982      1.652533      5.596945
  H       6.234504      2.581044      5.330117
  H       7.632187     -0.042146      3.193740
  O       6.722531      0.249600      3.318538
  H       6.221561     -0.540739      3.652398
  H       7.609153     -2.626538      4.252563
  O       7.712610     -2.647585      3.283394
  H       7.209413     -3.447459      3.048090
  H       5.799639      0.048982      0.347622
  O       5.612479      0.796344      0.953130
  H       6.048042      0.558880      1.805341
  H       9.527283      0.033095     -1.197302
  O       8.808060      0.394163     -0.660719
  H       8.488251     -0.389184     -0.176965
  H       7.992970     -3.070637      0.328655
  O       8.448574     -2.221338      0.526653
  H       8.492019     -2.216292      1.492114
  H       5.473315      3.739068      3.615307
  O       6.120977      4.051039      4.275691
  H       5.632456      4.739491      4.764339
  H       6.202600      1.891208     -0.550903
  O       6.742692      2.152455     -1.313121
  H       7.553805      1.618773     -1.195601
  H       4.522122      4.091016      1.689315
  O       4.398306      3.158525      1.981785
  H       5.112479      2.638058      1.596250
  H       4.680185      8.596112      0.027709
  O       5.035639      8.664022      0.937771
  H       5.457315      7.801856      1.057129
  H       5.205716      4.192672     -3.335584
  O       6.164838      4.240026     -3.224320
  H       6.355966      3.660253     -2.467365
  S       9.639514      1.852192      2.508602
  H       8.810602      2.846922      2.895373
  H       9.248483      1.923290      1.218073
39
Coordinates from ORCA-job neb_86_170_CI_MEP.QMRegion E -2273.686215056889
  H       4.216011      5.618340      0.258605
  O       4.564785      5.735828      1.161967
  H       3.862105      6.278067      1.577031
  H       6.399086      1.190623      4.813331
  O       6.064944      1.693504      5.577963
  H       6.231851      2.621970      5.305474
  H       7.602243     -0.077626      3.166651
  O       6.712538      0.257444      3.311361
  H       6.193133     -0.518837      3.652502
  H       7.611010     -2.616417      4.257686
  O       7.722948     -2.631020      3.289194
  H       7.215106     -3.424211      3.043260
  H       5.797349      0.067910      0.338572
  O       5.605183      0.817882      0.939255
  H       6.041596      0.587590      1.792518
  H       9.519400      0.053186     -1.234019
  O       8.808415      0.428963     -0.697472
  H       8.490991     -0.339447     -0.192331
  H       7.987709     -3.057610      0.324109
  O       8.440762     -2.206091      0.516417
  H       8.504025     -2.204294      1.480117
  H       5.483060      3.784084      3.596446
  O       6.129548      4.096559      4.258277
  H       5.634358      4.774522      4.755571
  H       6.204285      1.917356     -0.558664
  O       6.742876      2.178347     -1.322152
  H       7.554444      1.642677     -1.208258
  H       4.521998      4.123149      1.680003
  O       4.407558      3.190645      1.978258
  H       5.121916      2.675029      1.587052
  H       4.665137      8.623027      0.025766
  O       5.017721      8.701732      0.936166
  H       5.462279      7.851520      1.055976
  H       5.203316      4.208966     -3.346756
  O       6.162522      4.258282     -3.235948
  H       6.353934      3.683761     -2.474987
  S       9.440328      2.261757      2.375537
  H       8.638792      3.208433      2.911757
  H       9.000210      2.497925      1.122794
39
Coordinates from ORCA-job neb_86_170_CI_MEP.QMRegion E -2273.686196851149
  H       4.213999      5.624464      0.256064
  O       4.563847      5.743012      1.158941
  H       3.860356      6.283985      1.574714
  H       6.407619      1.202314      4.799240
  O       6.067858      1.706775      5.560290
  H       6.231662      2.634757      5.285324
  H       7.578282     -0.135996      3.147019
  O       6.710856      0.245485      3.304259
  H       6.168851     -0.512733      3.653394
  H       7.612563     -2.615963      4.262404
  O       7.730565     -2.626644      3.294369
  H       7.218219     -3.414470      3.041265
  H       5.792580      0.074510      0.334407
  O       5.599109      0.825954      0.932685
  H       6.042071      0.601289      1.783877
  H       9.526753      0.056038     -1.240068
  O       8.815753      0.438117     -0.708109
  H       8.494479     -0.324225     -0.198025
  H       7.985036     -3.057036      0.322331
  O       8.438280     -2.205137      0.512617
  H       8.514435     -2.207496      1.474914
  H       5.470526      3.797631      3.582666
  O       6.121447      4.113644      4.239470
  H       5.628413      4.789174      4.742510
  H       6.219771      1.920240     -0.553737
  O       6.753110      2.183800     -1.320523
  H       7.566728      1.649014     -1.211626
  H       4.519062      4.133560      1.675938
  O       4.409226      3.201735      1.978740
  H       5.124386      2.687491      1.586684
  H       4.656646      8.631759      0.025784
  O       5.008890      8.713904      0.936091
  H       5.461037      7.867794      1.055592
  H       5.200583      4.210386     -3.344313
  O       6.160025      4.259544     -3.235079
  H       6.352866      3.685575     -2.474037
  S       9.115774      2.637599      2.267594
  H       8.294009      3.516277      2.883705
  H       8.664817      2.971723      1.040726
39
Coordinates from ORCA-job neb_86_170_CI_MEP.QMRegion E -2273.686287068592
  H       4.218287      5.640709      0.246178
  O       4.573142      5.767672      1.146025
  H       3.865430      6.301510      1.564044
  H       6.434229      1.223517      4.786848
  O       6.076212      1.733692      5.534246
  H       6.233731      2.661693      5.252634
  H       7.557414     -0.252529      3.115326
  O       6.739300      0.219110      3.295757
  H       6.150408     -0.496567      3.657391
  H       7.622219     -2.611054      4.265053
  O       7.754910     -2.619080      3.298671
  H       7.230001     -3.393844      3.032776
  H       5.788613      0.084480      0.328499
  O       5.589140      0.834547      0.925698
  H       6.049659      0.622800      1.768838
  H       9.504768      0.078101     -1.255365
  O       8.787845      0.457601     -0.730737
  H       8.469446     -0.301936     -0.216021
  H       7.982580     -3.050826      0.316134
  O       8.436391     -2.198103      0.500865
  H       8.539546     -2.206511      1.459967
  H       5.494860      3.840571      3.569517
  O       6.132249      4.156362      4.239922
  H       5.621441      4.814741      4.749072
  H       6.196552      1.956764     -0.559398
  O       6.725063      2.210079     -1.333032
  H       7.545090      1.688796     -1.211194
  H       4.530188      4.161773      1.667433
  O       4.432364      3.229267      1.971687
  H       5.162797      2.730665      1.587772
  H       4.647208      8.651040      0.021416
  O       4.998959      8.737651      0.931576
  H       5.460401      7.896381      1.049346
  H       5.196935      4.224815     -3.363300
  O       6.155671      4.272779     -3.247007
  H       6.340662      3.697157     -2.484476
  S       8.791752      2.910102      2.017087
  H       8.156516      3.829082      2.777082
  H       8.495408      3.553130      0.867793
39
Coordinates from ORCA-job neb_86_170_CI_MEP.QMRegion E -2273.687104846881
  H       4.219156      5.655267      0.235980
  O       4.576959      5.792989      1.133271
  H       3.864629      6.321394      1.550816
  H       6.442905      1.246579      4.769354
  O       6.080394      1.761472      5.510637
  H       6.227525      2.688992      5.220194
  H       7.535546     -0.302882      3.093236
  O       6.746258      0.213251      3.281075
  H       6.134636     -0.478250      3.651538
  H       7.619751     -2.607516      4.264089
  O       7.757027     -2.611727      3.298221
  H       7.227361     -3.380638      3.025546
  H       5.777724      0.089064      0.315398
  O       5.570482      0.841748      0.905780
  H       6.034770      0.642521      1.747330
  H       9.484960      0.103964     -1.267403
  O       8.756335      0.471403     -0.750785
  H       8.441890     -0.292402     -0.241375
  H       7.974382     -3.045510      0.308473
  O       8.424471     -2.189789      0.489051
  H       8.539223     -2.198375      1.446327
  H       5.480587      3.878164      3.555156
  O       6.116486      4.191240      4.229854
  H       5.601976      4.838972      4.749723
  H       6.171615      1.989487     -0.570350
  O       6.695401      2.231663     -1.351045
  H       7.521558      1.724181     -1.218410
  H       4.526894      4.196422      1.661790
  O       4.453056      3.259768      1.960666
  H       5.218349      2.802055      1.593018
  H       4.630417      8.670840      0.017222
  O       4.982522      8.764003      0.926818
  H       5.456347      7.929529      1.042843
  H       5.191058      4.235224     -3.384244
  O       6.148863      4.283755     -3.259612
  H       6.326263      3.705791     -2.496281
  S       8.374714      3.221787      1.789555
  H       7.873323      4.089959      2.694849
  H       8.153123      4.060005      0.755080
39
Coordinates from ORCA-job neb_86_170_CI_MEP.QMRegion E -2273.687773747090
  H       4.220470      5.649418      0.232730
  O       4.594296      5.798592      1.122153
  H       3.892506      6.337664      1.542602
  H       6.510700      1.282479      4.782944
  O       6.113307      1.807615      5.497340
  H       6.270935      2.731910      5.203421
  H       7.556617     -0.405108      3.114256
  O       6.812515      0.172461      3.316333
  H       6.162573     -0.477566      3.694885
  H       7.668064     -2.610041      4.291410
  O       7.817975     -2.619932      3.326838
  H       7.266353     -3.371506      3.049426
  H       5.784517      0.053684      0.351952
  O       5.577027      0.800642      0.948766
  H       6.041345      0.597126      1.787445
  H       9.422420      0.055797     -1.259358
  O       8.684731      0.400995     -0.740919
  H       8.395806     -0.370800     -0.227181
  H       7.981888     -3.081106      0.326863
  O       8.445102     -2.230826      0.505491
  H       8.591519     -2.250422      1.457892
  H       5.543447      3.928932      3.559981
  O       6.177945      4.257755      4.227198
  H       5.646967      4.883360      4.757048
  H       6.114493      1.962803     -0.567820
  O       6.651142      2.183321     -1.344904
  H       7.473413      1.676816     -1.184549
  H       4.522396      4.201642      1.681546
  O       4.470081      3.261142      1.966553
  H       5.271775      2.856534      1.611449
  H       4.646100      8.661353      0.002075
  O       5.000515      8.758987      0.910743
  H       5.489226      7.933143      1.023143
  H       5.166715      4.201334     -3.371461
  O       6.123048      4.238124     -3.235605
  H       6.290764      3.629878     -2.492842
  S       7.841545      3.930903      1.180099
  H       7.604675      4.581016      2.339348
  H       7.106863      4.812537      0.470005
