24
Coordinates from ORCA-job neb_85_186_CI_MEP.QMRegion E -1917.021675344893
  H       2.254772      5.783014     -1.154560
  O       3.187437      5.470439     -1.012503
  H       3.324254      4.820438     -1.723664
  H       3.445197      3.392696     -3.625609
  O       3.229404      4.347407     -3.503569
  H       2.250587      4.312733     -3.565398
  H       3.773113      7.105110     -1.359034
  O       3.892096      8.053150     -1.588111
  H       3.766044      8.024269     -2.554654
  H       3.582643      6.260184     -4.204487
  O       3.773114      7.204972     -4.307165
  H       4.737559      7.229173     -4.428015
  H       6.808165      3.241862     -4.560019
  O       6.886516      2.599475     -5.289459
  H       6.046733      2.693219     -5.772714
  H       4.919052      8.488452      0.096766
  O       5.216575      8.402960      1.016653
  H       5.415796      7.454969      1.103936
  H       5.371371      4.257514     -2.976353
  O       6.324672      4.116580     -2.942533
  H       6.448516      3.453674     -2.232667
  S       7.055020      7.430274     -3.609238
  H       6.398648      7.862516     -2.510362
  H       7.008980      6.144169     -3.192270
24
Coordinates from ORCA-job neb_85_186_CI_MEP.QMRegion E -1917.014318848477
  H       2.242440      5.754916     -1.126405
  O       3.158969      5.414211     -0.953716
  H       3.285875      4.723693     -1.628252
  H       3.437422      3.340164     -3.556443
  O       3.197998      4.281131     -3.380558
  H       2.221604      4.245205     -3.485750
  H       3.794045      7.051650     -1.230387
  O       3.908029      7.992642     -1.483402
  H       3.839278      7.909587     -2.450712
  H       3.616724      5.973434     -3.960394
  O       3.818772      6.915546     -4.100219
  H       4.696102      6.919438     -4.509049
  H       6.755209      3.229004     -4.489614
  O       6.873313      2.611440     -5.240721
  H       6.039009      2.691106     -5.734488
  H       4.982693      8.420883      0.184159
  O       5.250676      8.351734      1.114840
  H       5.431579      7.400642      1.220697
  H       5.355309      4.268696     -2.901344
  O       6.302815      4.096331     -2.920874
  H       6.435426      3.427949     -2.219076
  S       6.723045      8.304439     -4.888045
  H       6.153301      8.724716     -3.738999
  H       7.542790      7.461030     -4.228986
24
Coordinates from ORCA-job neb_85_186_CI_MEP.QMRegion E -1917.013413671236
  H       2.242029      5.765497     -1.130156
  O       3.160973      5.430268     -0.960044
  H       3.288876      4.741864     -1.635959
  H       3.444257      3.353739     -3.561420
  O       3.205481      4.296892     -3.398153
  H       2.230280      4.265896     -3.507978
  H       3.798851      7.070926     -1.215393
  O       3.931933      8.015599     -1.444764
  H       3.962324      7.950576     -2.412506
  H       3.740809      5.969954     -3.938228
  O       4.016262      6.895375     -4.064245
  H       4.839312      6.844471     -4.567482
  H       6.757705      3.237463     -4.504762
  O       6.871504      2.613492     -5.250966
  H       6.036948      2.694039     -5.744018
  H       4.983452      8.443951      0.191248
  O       5.247009      8.376057      1.124461
  H       5.441500      7.428078      1.226267
  H       5.378060      4.318332     -2.904949
  O       6.316880      4.106149     -2.932733
  H       6.432226      3.438122     -2.228552
  S       6.609181      8.515286     -5.355435
  H       5.867625      9.007006     -4.341730
  H       7.589007      8.124567     -4.515820
24
Coordinates from ORCA-job neb_85_186_CI_MEP.QMRegion E -1917.013270824705
  H       2.251710      5.779190     -1.141113
  O       3.175775      5.455084     -0.979789
  H       3.309001      4.777854     -1.665195
  H       3.457209      3.377719     -3.587718
  O       3.220384      4.324233     -3.444007
  H       2.244506      4.290142     -3.538897
  H       3.821354      7.091711     -1.236842
  O       3.967075      8.043254     -1.429946
  H       4.088977      8.012127     -2.389616
  H       3.864362      6.008747     -3.971161
  O       4.255680      6.895082     -4.062043
  H       5.101502      6.746299     -4.501154
  H       6.784418      3.246426     -4.525350
  O       6.882542      2.613114     -5.264878
  H       6.047241      2.701997     -5.755041
  H       4.993274      8.463647      0.196286
  O       5.249216      8.402573      1.132998
  H       5.464650      7.460406      1.236251
  H       5.415715      4.346618     -2.913557
  O       6.351625      4.122792     -2.944063
  H       6.459844      3.454034     -2.239871
  S       6.603975      8.648545     -5.696843
  H       5.550780      9.006974     -4.936730
  H       7.452031      8.730625     -4.651741
24
Coordinates from ORCA-job neb_85_186_CI_MEP.QMRegion E -1917.013145036287
  H       2.251662      5.781498     -1.149028
  O       3.178871      5.462490     -0.993731
  H       3.313352      4.790679     -1.683278
  H       3.451814      3.386599     -3.613464
  O       3.226623      4.337811     -3.479878
  H       2.249477      4.308753     -3.559782
  H       3.826881      7.091572     -1.253292
  O       3.983409      8.046848     -1.420474
  H       4.152124      8.041965     -2.372143
  H       3.968269      6.039599     -4.002123
  O       4.462865      6.875939     -4.055781
  H       5.370649      6.597087     -4.218402
  H       6.788740      3.250823     -4.531661
  O       6.882607      2.614243     -5.267303
  H       6.047198      2.704186     -5.757526
  H       4.998559      8.460081      0.210378
  O       5.252042      8.406796      1.148449
  H       5.473671      7.467085      1.257592
  H       5.378898      4.287252     -2.908554
  O       6.328993      4.132880     -2.937218
  H       6.475228      3.466347     -2.237317
  S       6.637022      8.829450     -5.873607
  H       5.388935      8.598202     -5.416982
  H       7.090751      9.137907     -4.641037
24
Coordinates from ORCA-job neb_85_186_CI_MEP.QMRegion E -1917.013709383070
  H       2.240015      5.774313     -1.149649
  O       3.169756      5.458753     -0.996402
  H       3.304030      4.784874     -1.682600
  H       3.412957      3.371356     -3.635785
  O       3.207488      4.326882     -3.496492
  H       2.228577      4.311039     -3.560166
  H       3.798194      7.089109     -1.268474
  O       3.955393      8.048313     -1.414269
  H       4.098895      8.072026     -2.368697
  H       4.027980      5.997176     -3.996203
  O       4.605265      6.778920     -3.942576
  H       5.452716      6.405005     -3.673262
  H       6.771400      3.259396     -4.530107
  O       6.869998      2.619543     -5.259659
  H       6.037375      2.707223     -5.756109
  H       4.975555      8.456968      0.206933
  O       5.241797      8.404462      1.141382
  H       5.461759      7.464198      1.249925
  H       5.262443      4.118228     -2.909407
  O       6.225914      4.131878     -2.905364
  H       6.452162      3.483063     -2.209519
  S       6.057214      8.911815     -6.157387
  H       5.266967      8.059144     -5.462999
  H       6.542089      9.460900     -5.024128
24
Coordinates from ORCA-job neb_85_186_CI_MEP.QMRegion E -1917.014758590798
  H       2.245631      5.779502     -1.150655
  O       3.175418      5.464016     -0.999047
  H       3.305255      4.784465     -1.680848
  H       3.427333      3.372990     -3.630540
  O       3.237981      4.332577     -3.496045
  H       2.261225      4.337577     -3.571989
  H       3.828413      7.083999     -1.263791
  O       4.002481      8.043280     -1.389016
  H       4.250454      8.073464     -2.320874
  H       4.231731      5.991002     -3.962158
  O       4.847560      6.739955     -3.898895
  H       5.667494      6.324449     -3.603694
  H       6.776171      3.260668     -4.516580
  O       6.875704      2.627290     -5.251578
  H       6.042946      2.716570     -5.747439
  H       4.995497      8.445519      0.234852
  O       5.252167      8.410038      1.173730
  H       5.482184      7.474286      1.295247
  H       5.280445      4.137346     -2.885855
  O       6.244286      4.134407     -2.891842
  H       6.468054      3.482586     -2.197709
  S       5.201914      8.824828     -6.635102
  H       5.074115      7.834813     -5.719811
  H       5.164154      9.774122     -5.676762
