27
Coordinates from ORCA-job neb_107_109_CI_MEP.QMRegion E -1988.356855808394
  H       4.218349      5.504971      0.352580
  O       4.615514      5.635577      1.237186
  H       3.893165      6.076667      1.726788
  H       6.429611      1.030512      4.751117
  O       6.092335      1.530350      5.515206
  H       6.268439      2.454415      5.246967
  H       4.365809      5.010925      6.117493
  O       4.277997      5.701434      5.449447
  H       3.652298      5.303313      4.790137
  H       5.390652      3.573659      3.526185
  O       6.110969      3.881263      4.112039
  H       5.763713      4.710901      4.469175
  H       2.688306      6.551904      6.182250
  O       1.723595      6.560960      6.277312
  H       1.475608      5.610232      6.219417
  H       4.860807      8.493854      0.070475
  O       5.247727      8.446127      0.968899
  H       5.454507      7.500558      1.053548
  H       0.261716      8.674802      4.238764
  O       0.941963      8.026238      4.010375
  H       1.119984      7.492925      4.812404
  H       3.582870      8.196937      1.888854
  O       2.789946      7.647823      2.021354
  H       2.314411      7.967039      2.812585
  S       5.119744      9.376213      4.434802
  H       5.128297      8.039789      4.615571
  H       5.454106      9.267723      3.130829
27
Coordinates from ORCA-job neb_107_109_CI_MEP.QMRegion E -1988.354257201164
  H       4.186840      5.534536      0.313433
  O       4.580315      5.658858      1.201443
  H       3.860101      6.113066      1.680947
  H       6.380756      1.053334      4.701650
  O       6.057954      1.558385      5.468612
  H       6.221278      2.482250      5.185816
  H       4.209262      4.899347      6.152613
  O       4.188464      5.625625      5.517693
  H       3.581364      5.282574      4.809046
  H       5.337276      3.598409      3.480581
  O       6.043462      3.912562      4.082653
  H       5.643862      4.687913      4.502056
  H       2.623245      6.564126      6.167137
  O       1.655765      6.599515      6.218231
  H       1.395969      5.652816      6.168317
  H       4.798286      8.565702      0.031907
  O       5.167585      8.514470      0.937941
  H       5.404141      7.574510      0.995243
  H       0.211944      8.718625      4.189645
  O       0.910407      8.086500      3.966837
  H       1.075366      7.540518      4.763089
  H       3.558171      8.231399      1.832820
  O       2.765527      7.680370      1.989552
  H       2.271738      8.012976      2.762469
  S       6.156741      8.757874      5.113922
  H       5.471844      7.603325      5.239720
  H       6.598234      8.437770      3.880251
27
Coordinates from ORCA-job neb_107_109_CI_MEP.QMRegion E -1988.354073392789
  H       4.205880      5.516578      0.332229
  O       4.597926      5.645182      1.219470
  H       3.877921      6.098157      1.700067
  H       6.386151      1.036516      4.705331
  O       6.063960      1.547475      5.468631
  H       6.224353      2.469518      5.176277
  H       4.182562      4.861800      6.190353
  O       4.176284      5.589880      5.556998
  H       3.577382      5.257494      4.837119
  H       5.333097      3.590103      3.496129
  O       6.038329      3.903315      4.099716
  H       5.632623      4.666042      4.536210
  H       2.623402      6.544707      6.178430
  O       1.655748      6.586785      6.221205
  H       1.393936      5.640065      6.170825
  H       4.799365      8.558021      0.052735
  O       5.156519      8.532716      0.964502
  H       5.424186      7.603720      1.044874
  H       0.211910      8.710530      4.194770
  O       0.918912      8.087435      3.973364
  H       1.082863      7.536940      4.766851
  H       3.569152      8.225834      1.838210
  O       2.778239      7.672610      2.001915
  H       2.282894      8.014538      2.769228
  S       6.631112      8.306435      5.425010
  H       5.605502      7.432749      5.451503
  H       7.021461      7.886766      4.204483
27
Coordinates from ORCA-job neb_107_109_CI_MEP.QMRegion E -1988.354045460562
  H       4.216819      5.515169      0.339302
  O       4.611080      5.639461      1.225760
  H       3.892993      6.090337      1.710529
  H       6.384962      1.022585      4.706023
  O       6.063841      1.536337      5.467962
  H       6.227667      2.456920      5.172736
  H       4.172497      4.835661      6.212847
  O       4.171875      5.564836      5.580714
  H       3.576240      5.238469      4.855887
  H       5.331736      3.589224      3.502767
  O       6.040096      3.895598      4.106389
  H       5.633100      4.645813      4.562876
  H       2.625414      6.529262      6.187072
  O       1.657836      6.578278      6.225825
  H       1.391590      5.632452      6.175537
  H       4.799257      8.546135      0.066058
  O       5.152659      8.549418      0.979719
  H       5.454678      7.633823      1.080579
  H       0.216091      8.702765      4.202539
  O       0.923578      8.080998      3.979273
  H       1.088020      7.528019      4.771046
  H       3.574550      8.220459      1.841243
  O       2.782592      7.668307      2.005235
  H       2.290115      8.009444      2.774533
  S       6.979361      7.823524      5.706524
  H       5.766122      7.240528      5.627088
  H       7.344749      7.332955      4.504715
27
Coordinates from ORCA-job neb_107_109_CI_MEP.QMRegion E -1988.354164408694
  H       4.225027      5.508354      0.339418
  O       4.619518      5.632655      1.225670
  H       3.902095      6.084035      1.710978
  H       6.390169      1.014765      4.712860
  O       6.067921      1.526557      5.475661
  H       6.234959      2.447373      5.183570
  H       4.163722      4.814822      6.228866
  O       4.173029      5.543809      5.596331
  H       3.577094      5.224960      4.868739
  H       5.340869      3.582768      3.507608
  O       6.043452      3.891062      4.116916
  H       5.620398      4.623029      4.589083
  H       2.632496      6.524498      6.196056
  O       1.664898      6.575643      6.231131
  H       1.397319      5.630324      6.179378
  H       4.801575      8.542719      0.068068
  O       5.154481      8.548526      0.981960
  H       5.464451      7.635748      1.083914
  H       0.224372      8.698102      4.205620
  O       0.931801      8.076421      3.982450
  H       1.097757      7.524527      4.774737
  H       3.578341      8.211667      1.839795
  O       2.786692      7.659065      2.004061
  H       2.295740      7.999132      2.774661
  S       7.244564      7.344028      5.979300
  H       5.940580      7.071478      5.769503
  H       7.595318      6.782169      4.804747
27
Coordinates from ORCA-job neb_107_109_CI_MEP.QMRegion E -1988.354086148390
  H       4.219328      5.503354      0.335960
  O       4.614685      5.626222      1.222160
  H       3.891861      6.064178      1.712187
  H       6.397446      0.999951      4.734682
  O       6.071109      1.503103      5.501202
  H       6.236948      2.426277      5.217451
  H       4.139236      4.771233      6.252247
  O       4.167270      5.502236      5.622334
  H       3.566872      5.202597      4.891307
  H       5.342533      3.550482      3.505266
  O       6.023617      3.864080      4.136190
  H       5.565690      4.568303      4.619598
  H       2.635472      6.515131      6.216353
  O       1.667823      6.567175      6.243230
  H       1.400237      5.621179      6.192266
  H       4.791318      8.523398      0.077226
  O       5.140121      8.519121      0.992600
  H       5.447246      7.604221      1.086876
  H       0.223434      8.678887      4.217587
  O       0.928674      8.054551      3.995181
  H       1.092456      7.500315      4.786606
  H       3.565235      8.175898      1.845998
  O       2.767523      7.629409      2.001040
  H       2.282703      7.960030      2.779490
  S       7.423695      6.759680      6.300284
  H       6.132842      6.851052      5.920746
  H       7.765083      6.159494      5.142021
27
Coordinates from ORCA-job neb_107_109_CI_MEP.QMRegion E -1988.354354883774
  H       4.220555      5.491528      0.339165
  O       4.616061      5.617185      1.224829
  H       3.890822      6.049929      1.715816
  H       6.398823      0.993466      4.737674
  O       6.072272      1.498032      5.503162
  H       6.239048      2.420604      5.219308
  H       4.135262      4.750170      6.271076
  O       4.176896      5.477991      5.637927
  H       3.575180      5.185465      4.905406
  H       5.351252      3.553409      3.507364
  O       6.027739      3.865868      4.143656
  H       5.558397      4.553710      4.640480
  H       2.639420      6.505985      6.221800
  O       1.672090      6.557640      6.247708
  H       1.403549      5.611704      6.194943
  H       4.776488      8.513685      0.081485
  O       5.122813      8.520397      0.998125
  H       5.446610      7.612340      1.099114
  H       0.217183      8.664592      4.219509
  O       0.924642      8.042331      3.998195
  H       1.092270      7.491197      4.790844
  H       3.557021      8.161008      1.842603
  O       2.759718      7.614020      1.999563
  H       2.277387      7.945063      2.779126
  S       7.573546      6.159019      6.561060
  H       6.340522      6.479062      6.120934
  H       7.814573      5.413226      5.463689
