15
Coordinates from ORCA-job neb_36_135_CI_MEP.QMRegion E -1703.021228172668
  H       7.876777      0.795730     -6.827342
  O       7.417067     -0.050215     -6.898787
  H       6.460876      0.082284     -6.716075
  H       6.505777      1.463314     -4.175063
  O       6.230522      0.837191     -3.481882
  H       6.269033      1.323446     -2.632286
  H       6.632325      3.517389     -4.587106
  O       6.750446      2.893244     -5.332671
  H       5.883693      2.897921     -5.781518
  H       5.205359      4.291316     -3.020330
  O       6.171533      4.326204     -2.976928
  H       6.396962      3.723512     -2.250153
  S       9.541441      2.537313     -7.235663
  H       8.500948      3.143432     -6.616257
  H       9.011311      2.716520     -8.463600
15
Coordinates from ORCA-job neb_36_135_CI_MEP.QMRegion E -1703.019524496975
  H       7.779161      0.888929     -6.671721
  O       7.420126      0.024882     -6.898140
  H       6.447393      0.074201     -6.748594
  H       6.468693      1.417966     -4.208524
  O       6.208195      0.796139     -3.501064
  H       6.241065      1.285389     -2.656831
  H       6.629982      3.394119     -4.593051
  O       6.741538      2.777904     -5.346203
  H       5.879463      2.821721     -5.801259
  H       5.197439      4.210651     -3.031383
  O       6.163682      4.211210     -2.988082
  H       6.368625      3.597931     -2.261157
  S       9.678746      3.033481     -7.272991
  H       8.953781      3.749578     -6.390861
  H       8.660122      3.023979     -8.157586
15
Coordinates from ORCA-job neb_36_135_CI_MEP.QMRegion E -1703.018990290027
  H       7.710450      0.927497     -6.561990
  O       7.402852      0.062973     -6.852441
  H       6.424343      0.074058     -6.729832
  H       6.448202      1.430546     -4.195180
  O       6.198213      0.802813     -3.490209
  H       6.231835      1.290707     -2.644533
  H       6.634426      3.407491     -4.598505
  O       6.737267      2.787961     -5.349698
  H       5.872673      2.836094     -5.800011
  H       5.183046      4.229179     -3.029168
  O       6.149587      4.227565     -2.983529
  H       6.352256      3.616526     -2.254910
  S       9.683180      3.310776     -7.334366
  H       9.124280      3.969542     -6.300340
  H       8.479527      3.149537     -7.920535
15
Coordinates from ORCA-job neb_36_135_CI_MEP.QMRegion E -1703.018850893869
  H       7.659744      0.938550     -6.474364
  O       7.388186      0.079869     -6.813222
  H       6.406343      0.064527     -6.714231
  H       6.429838      1.437577     -4.181287
  O       6.188559      0.802558     -3.480613
  H       6.221605      1.286144     -2.631720
  H       6.626034      3.420723     -4.591888
  O       6.724394      2.797321     -5.340468
  H       5.858745      2.846131     -5.789339
  H       5.164972      4.240823     -3.020320
  O       6.131550      4.240828     -2.972586
  H       6.334759      3.629352     -2.244931
  S       9.626206      3.529723     -7.375163
  H       9.258612      4.152819     -6.238584
  H       8.340742      3.247748     -7.664971
15
Coordinates from ORCA-job neb_36_135_CI_MEP.QMRegion E -1703.018828610215
  H       7.643983      0.939577     -6.460494
  O       7.383500      0.081464     -6.807637
  H       6.400775      0.060184     -6.713175
  H       6.426554      1.442819     -4.178159
  O       6.187111      0.809742     -3.475711
  H       6.220997      1.297505     -2.628845
  H       6.637795      3.414833     -4.605727
  O       6.723472      2.789397     -5.353982
  H       5.852662      2.841591     -5.793195
  H       5.171996      4.240945     -3.018416
  O       6.138627      4.236708     -2.976720
  H       6.342836      3.629106     -2.245881
  S       9.607445      3.714829     -7.356588
  H       9.392737      4.496599     -6.279888
  H       8.315470      3.331277     -7.366331
15
Coordinates from ORCA-job neb_36_135_CI_MEP.QMRegion E -1703.019278357734
  H       7.641346      0.955919     -6.429183
  O       7.388759      0.099229     -6.786027
  H       6.405543      0.074273     -6.703386
  H       6.439701      1.458073     -4.172423
  O       6.195628      0.821154     -3.476689
  H       6.230793      1.304533     -2.626677
  H       6.650231      3.454812     -4.600890
  O       6.732238      2.832948     -5.352988
  H       5.857570      2.878906     -5.785960
  H       5.188149      4.260384     -3.002338
  O       6.154905      4.266343     -2.961728
  H       6.365046      3.657717     -2.233773
  S       9.561702      3.890884     -7.326514
  H       9.540875      4.745832     -6.284376
  H       8.309224      3.474255     -7.045562
15
Coordinates from ORCA-job neb_36_135_CI_MEP.QMRegion E -1703.019841103493
  H       7.652575      0.933176     -6.431392
  O       7.396945      0.074832     -6.780229
  H       6.414368      0.049959     -6.693936
  H       6.459120      1.430381     -4.167192
  O       6.201921      0.804089     -3.467427
  H       6.241612      1.289817     -2.618943
  H       6.629629      3.413525     -4.579983
  O       6.741699      2.802420     -5.339617
  H       5.877975      2.843187     -5.795281
  H       5.181973      4.231334     -3.022656
  O       6.148955      4.226727     -2.985078
  H       6.355930      3.624981     -2.249828
  S       9.382942      4.206629     -7.233622
  H       9.568854      5.218823     -6.362463
  H       8.290256      3.759706     -6.569878
