24
Coordinates from ORCA-job neb_12_428_CI_MEP.QMRegion E -1917.018506870543
  H      -0.537226      8.830088     -2.269432
  O      -0.332102      9.607541     -1.698572
  H       0.411657      9.312025     -1.127877
  H      -1.749229      9.563140     -0.767411
  O      -2.625738      9.486750     -0.316493
  H      -3.204631     10.057879     -0.831078
  H      -2.434175     11.007667     -3.274446
  O      -3.335178     10.769395     -3.002343
  H      -3.875373     11.473669     -3.371649
  H       1.961798      8.269853      0.718860
  O       1.680482      8.549728     -0.186181
  H       2.501879      8.503217     -0.710866
  H       3.896017      7.019629     -1.149442
  O       4.184070      7.948522     -1.303548
  H       4.495526      7.898822     -2.224372
  H       5.150326      8.444515      0.405442
  O       5.375543      8.388534      1.350207
  H       5.605587      7.450935      1.448693
  H       3.665874      8.150835      2.090991
  O       2.836946      7.631748      2.088608
  H       2.349548      7.806718      2.913102
  S      -0.362629     12.467079     -3.297753
  H      -0.024893     11.329029     -2.628582
  H       0.451312     12.186030     -4.334158
24
Coordinates from ORCA-job neb_12_428_CI_MEP.QMRegion E -1917.015522476781
  H      -0.644589      8.826154     -2.248227
  O      -0.486281      9.627601     -1.690712
  H       0.259251      9.360285     -1.109206
  H      -1.853469      9.589778     -0.729104
  O      -2.702696      9.473997     -0.232958
  H      -3.327984     10.073439     -0.647210
  H      -2.303156     10.673050     -2.977016
  O      -3.264141     10.701702     -2.887363
  H      -3.541373     11.438426     -3.437511
  H       1.892520      8.311262      0.694775
  O       1.584168      8.583958     -0.203070
  H       2.392959      8.546465     -0.748079
  H       3.807860      7.036822     -1.185531
  O       4.060344      7.969231     -1.379744
  H       4.395378      7.885434     -2.290975
  H       5.089508      8.409846      0.247201
  O       5.343834      8.377295      1.187237
  H       5.576552      7.442230      1.305880
  H       3.656642      8.164765      1.999448
  O       2.823833      7.652575      2.038185
  H       2.371648      7.836807      2.879801
  S       0.683879     12.624026     -3.037371
  H       0.423549     11.510623     -2.314487
  H       1.510003     11.947891     -3.860177
24
Coordinates from ORCA-job neb_12_428_CI_MEP.QMRegion E -1917.013226651102
  H      -0.682310      8.815507     -2.292019
  O      -0.528717      9.638157     -1.762671
  H       0.230433      9.396380     -1.193499
  H      -1.853398      9.576815     -0.754248
  O      -2.691334      9.464667     -0.235242
  H      -3.327005     10.060346     -0.638859
  H      -2.292318     10.625908     -2.914872
  O      -3.256542     10.674399     -2.876325
  H      -3.497305     11.403195     -3.453355
  H       1.881347      8.331975      0.668425
  O       1.582115      8.599023     -0.232551
  H       2.395768      8.540534     -0.768946
  H       3.816014      7.028309     -1.178828
  O       4.074774      7.958935     -1.373927
  H       4.408037      7.870813     -2.285699
  H       5.114690      8.389339      0.263269
  O       5.363946      8.351406      1.204115
  H       5.581588      7.412109      1.321460
  H       3.658354      8.151244      1.996229
  O       2.821809      7.644968      2.025967
  H       2.371648      7.821640      2.870025
  S       1.266790     12.659864     -2.800014
  H       0.971871     11.751662     -1.849197
  H       1.814769     11.711950     -3.586030
24
Coordinates from ORCA-job neb_12_428_CI_MEP.QMRegion E -1917.012701469264
  H      -0.733883      8.821205     -2.340599
  O      -0.605973      9.677581     -1.856929
  H       0.181850      9.508015     -1.308780
  H      -1.879917      9.589053     -0.770923
  O      -2.697258      9.465747     -0.224500
  H      -3.349391     10.062070     -0.599843
  H      -2.291502     10.613668     -2.842058
  O      -3.257436     10.675004     -2.849240
  H      -3.463189     11.408177     -3.433547
  H       1.852179      8.380180      0.649945
  O       1.562745      8.632436     -0.256628
  H       2.384224      8.554383     -0.778277
  H       3.816629      7.033789     -1.164953
  O       4.077475      7.963605     -1.360544
  H       4.412947      7.873433     -2.271141
  H       5.128506      8.397531      0.292680
  O       5.376518      8.356384      1.233210
  H       5.588680      7.415725      1.348829
  H       3.658073      8.159516      2.006238
  O       2.818769      7.658179      2.022947
  H       2.367874      7.825995      2.868439
  S       1.649286     12.568253     -2.468772
  H       1.518106     11.735142     -1.416951
  H       2.104677     11.571719     -3.253870
24
Coordinates from ORCA-job neb_12_428_CI_MEP.QMRegion E -1917.012960184931
  H      -0.808552      8.831614     -2.425540
  O      -0.780456      9.750632     -2.046762
  H       0.108854      9.845829     -1.684626
  H      -1.908603      9.606824     -0.783039
  O      -2.707849      9.471717     -0.220487
  H      -3.373095     10.058621     -0.588847
  H      -2.334844     10.560370     -2.830975
  O      -3.301450     10.670775     -2.854642
  H      -3.467476     11.389993     -3.466632
  H       1.855379      8.367656      0.649614
  O       1.556541      8.629328     -0.249497
  H       2.373433      8.542863     -0.773692
  H       3.815883      7.038267     -1.163889
  O       4.087280      7.963432     -1.367295
  H       4.423942      7.859734     -2.276324
  H       5.131414      8.391351      0.285375
  O       5.385919      8.354691      1.224422
  H       5.587421      7.412175      1.344972
  H       3.662231      8.160235      2.020858
  O       2.831233      7.647290      2.038575
  H       2.372003      7.818929      2.878737
  S       1.710181     12.310423     -2.236811
  H       1.950875     11.572809     -1.133226
  H       2.397018     11.456635     -3.021834
24
Coordinates from ORCA-job neb_12_428_CI_MEP.QMRegion E -1917.015329987496
  H      -0.745955      8.834267     -2.461033
  O      -0.770889      9.764183     -2.113591
  H       0.143695     10.064999     -2.020676
  H      -1.804234      9.580645     -0.739301
  O      -2.624540      9.450787     -0.214286
  H      -3.263179     10.055481     -0.601177
  H      -2.294753     10.450277     -2.802298
  O      -3.258966     10.618240     -2.824878
  H      -3.385713     11.340210     -3.442325
  H       1.966788      8.256971      0.714847
  O       1.647449      8.549047     -0.166695
  H       2.449082      8.478111     -0.712594
  H       3.887183      7.006789     -1.132896
  O       4.201702      7.920856     -1.323847
  H       4.516108      7.815203     -2.240845
  H       5.243869      8.336687      0.343288
  O       5.498813      8.293363      1.281647
  H       5.661662      7.342808      1.399853
  H       3.749913      8.125828      2.113654
  O       2.921317      7.610636      2.119749
  H       2.439315      7.782516      2.946110
  S       1.828357     11.932019     -2.061402
  H       2.209629     11.308994     -0.927624
  H       2.726824     11.258845     -2.806159
24
Coordinates from ORCA-job neb_12_428_CI_MEP.QMRegion E -1917.018188445019
  H      -0.695599      8.902494     -2.597609
  O      -0.690560      9.847129     -2.303352
  H       0.233939     10.141455     -2.289996
  H      -1.688665      9.596197     -0.761439
  O      -2.521560      9.482327     -0.264406
  H      -3.127158     10.103233     -0.682948
  H      -2.277946     10.519483     -2.866130
  O      -3.243878     10.675457     -2.830510
  H      -3.402542     11.449297     -3.374534
  H       1.999998      8.204077      0.782581
  O       1.650482      8.509377     -0.086185
  H       2.429307      8.443034     -0.664351
  H       3.870976      7.024701     -1.152959
  O       4.168388      7.942786     -1.351918
  H       4.484315      7.832802     -2.268638
  H       5.221980      8.376327      0.323141
  O       5.478618      8.318615      1.259638
  H       5.644346      7.367067      1.364596
  H       3.753723      8.147496      2.147095
  O       2.933828      7.619310      2.161364
  H       2.435941      7.807002      2.975817
  S       2.289978     11.437037     -1.629237
  H       2.085554     10.647726     -0.546512
  H       3.272851     10.630306     -2.075295
