30
Coordinates from ORCA-job neb_207_369_CI_MEP.QMRegion E -2059.698228876130
  H      -0.724565      8.777040     -2.214027
  O      -0.570287      9.628054     -1.731835
  H       0.139870      9.423384     -1.097852
  H       4.185051      4.741549      6.249046
  O       4.236588      5.452935      5.599182
  H       3.633497      5.146127      4.873121
  H       1.860605      8.277038      0.725564
  O       1.520895      8.619474     -0.140344
  H       2.299667      8.572279     -0.725396
  H       3.736653      7.036716     -1.192389
  O       3.952333      7.975593     -1.406818
  H       4.313774      7.883710     -2.307598
  H       0.600592      7.118115      7.701282
  O      -0.316435      7.192645      8.013695
  H      -0.833985      7.145733      7.171151
  H       2.738713      6.469378      6.218913
  O       1.773135      6.541640      6.323690
  H       1.483158      5.604408      6.240785
  H       4.973832      8.394930      0.085287
  O       5.268304      8.473111      1.016019
  H       5.586469      7.580116      1.216364
  H       0.328276      8.690580      4.258484
  O       0.994370      8.025228      4.036415
  H       1.169018      7.507677      4.847432
  H       3.652532      8.188760      1.902019
  O       2.837575      7.663485      2.019098
  H       2.399475      7.931624      2.847952
  S       3.114627     11.459772      1.628146
  H       2.392978     10.652323      0.818686
  H       4.224093     10.712341      1.461074
30
Coordinates from ORCA-job neb_207_369_CI_MEP.QMRegion E -2059.696838920778
  H      -0.729008      8.793384     -2.250237
  O      -0.584119      9.651119     -1.777948
  H       0.146903      9.466732     -1.160378
  H       4.138190      4.748196      6.220204
  O       4.215787      5.458435      5.571694
  H       3.622643      5.153527      4.835020
  H       1.844766      8.333639      0.654343
  O       1.504288      8.651771     -0.217352
  H       2.286001      8.604000     -0.796740
  H       3.737607      7.057340     -1.212573
  O       3.960982      7.990998     -1.436906
  H       4.329178      7.884723     -2.333778
  H       0.571985      7.110459      7.662423
  O      -0.337948      7.180861      7.994938
  H      -0.865769      7.132702      7.156873
  H       2.684241      6.471104      6.132021
  O       1.719027      6.539531      6.239755
  H       1.436922      5.597953      6.182147
  H       4.995203      8.415354      0.080332
  O       5.283627      8.436596      1.015181
  H       5.551551      7.517553      1.174193
  H       0.324654      8.695634      4.197663
  O       0.980597      8.023870      3.967223
  H       1.133693      7.478452      4.764550
  H       3.652949      8.173078      1.826656
  O       2.823509      7.669572      1.943781
  H       2.394581      7.947537      2.773987
  S       3.283534     11.229159      2.945323
  H       3.004205     10.896767      1.667527
  H       4.412995     10.493157      2.932945
30
Coordinates from ORCA-job neb_207_369_CI_MEP.QMRegion E -2059.696479835564
  H      -0.717059      8.787925     -2.229682
  O      -0.570754      9.642141     -1.752155
  H       0.155044      9.450682     -1.130121
  H       4.147622      4.703605      6.240217
  O       4.216293      5.424694      5.602599
  H       3.621947      5.130076      4.863387
  H       1.854856      8.314736      0.687410
  O       1.519961      8.626571     -0.187954
  H       2.308445      8.586671     -0.758153
  H       3.762037      7.044998     -1.182725
  O       4.000780      7.977590     -1.395767
  H       4.360226      7.876569     -2.296427
  H       0.579304      7.098618      7.675227
  O      -0.332855      7.177294      8.000722
  H      -0.857798      7.130740      7.161025
  H       2.702474      6.447894      6.178736
  O       1.737161      6.523890      6.280337
  H       1.449341      5.584024      6.212471
  H       5.033302      8.396541      0.139674
  O       5.316314      8.414112      1.075698
  H       5.569582      7.490344      1.233168
  H       0.351441      8.679918      4.228473
  O       0.991887      7.994073      3.997228
  H       1.146427      7.453768      4.797528
  H       3.671140      8.162450      1.878084
  O       2.842900      7.655167      1.985248
  H       2.408142      7.922103      2.816331
  S       3.300931     11.125605      3.267613
  H       3.382268     10.901160      1.939949
  H       4.385895     10.361457      3.505283
30
Coordinates from ORCA-job neb_207_369_CI_MEP.QMRegion E -2059.696499163703
  H      -0.715600      8.788062     -2.225894
  O      -0.571060      9.642872     -1.749544
  H       0.156127      9.454079     -1.127901
  H       4.148447      4.698257      6.244710
  O       4.215310      5.420680      5.608224
  H       3.622148      5.126191      4.868088
  H       1.850480      8.322695      0.686337
  O       1.517140      8.623657     -0.192551
  H       2.308340      8.586463     -0.758579
  H       3.764911      7.041768     -1.176615
  O       4.008247      7.973462     -1.389034
  H       4.368193      7.871434     -2.289314
  H       0.581779      7.095156      7.678926
  O      -0.330624      7.176590      8.003212
  H      -0.855570      7.130098      7.163940
  H       2.704337      6.441339      6.183533
  O       1.739249      6.521341      6.285281
  H       1.448756      5.582105      6.216229
  H       5.027905      8.392625      0.139429
  O       5.310693      8.426741      1.075601
  H       5.575318      7.508797      1.246214
  H       0.342992      8.677425      4.229674
  O       0.996092      8.000994      4.004822
  H       1.144999      7.456725      4.803455
  H       3.662318      8.163492      1.874824
  O       2.840834      7.646437      1.984569
  H       2.399974      7.917996      2.810480
  S       3.298882     11.107929      3.268115
  H       3.868203     10.818539      2.079367
  H       4.118876     10.246301      3.904605
30
Coordinates from ORCA-job neb_207_369_CI_MEP.QMRegion E -2059.696686542915
  H      -0.713954      8.789660     -2.217746
  O      -0.571809      9.645219     -1.742525
  H       0.153563      9.459242     -1.117861
  H       4.146980      4.696938      6.255916
  O       4.210587      5.419218      5.619343
  H       3.618131      5.123343      4.879351
  H       1.840842      8.329151      0.696716
  O       1.509515      8.621874     -0.184702
  H       2.304421      8.592403     -0.745608
  H       3.765114      7.042726     -1.166654
  O       4.011076      7.974686     -1.374024
  H       4.371556      7.876917     -2.274311
  H       0.578713      7.099741      7.687220
  O      -0.334376      7.181427      8.008977
  H      -0.858140      7.133637      7.169381
  H       2.703050      6.440134      6.198111
  O       1.737672      6.523563      6.296863
  H       1.445053      5.585141      6.224664
  H       5.016349      8.402572      0.158566
  O       5.297147      8.442309      1.095446
  H       5.579980      7.530526      1.267759
  H       0.327649      8.679577      4.244196
  O       1.000182      8.019786      4.024786
  H       1.144385      7.469583      4.820636
  H       3.657342      8.163774      1.886677
  O       2.835852      7.646022      1.996613
  H       2.394896      7.910276      2.823835
  S       3.433774     11.180250      3.350074
  H       4.219987     10.663680      2.384472
  H       3.695128     10.142450      4.168199
30
Coordinates from ORCA-job neb_207_369_CI_MEP.QMRegion E -2059.696916723899
  H      -0.710827      8.780895     -2.211103
  O      -0.563697      9.631630     -1.728259
  H       0.153634      9.432678     -1.098493
  H       4.155779      4.651638      6.264566
  O       4.209127      5.384983      5.639406
  H       3.617507      5.096655      4.896679
  H       1.840943      8.291779      0.719188
  O       1.513734      8.597156     -0.158811
  H       2.310789      8.574475     -0.717464
  H       3.769254      7.031926     -1.163863
  O       4.017045      7.965273     -1.362806
  H       4.373348      7.874021     -2.265255
  H       0.587036      7.077983      7.681410
  O      -0.325252      7.172214      8.003495
  H      -0.850735      7.127273      7.164904
  H       2.715649      6.411936      6.222284
  O       1.749293      6.503014      6.306973
  H       1.452516      5.565084      6.232111
  H       5.036400      8.375268      0.188169
  O       5.313137      8.379004      1.126620
  H       5.570473      7.453611      1.271323
  H       0.318206      8.646509      4.273954
  O       1.016699      8.012943      4.056525
  H       1.158646      7.448823      4.844990
  H       3.675147      8.121646      1.900384
  O       2.845351      7.614642      2.011560
  H       2.423164      7.853442      2.854021
  S       3.746121     11.037455      3.780951
  H       4.469913     10.252367      2.956603
  H       3.121331      9.987412      4.342189
30
Coordinates from ORCA-job neb_207_369_CI_MEP.QMRegion E -2059.696994980259
  H      -0.728392      8.793786     -2.224933
  O      -0.587683      9.652382     -1.754147
  H       0.134016      9.469157     -1.123955
  H       4.216498      4.861031      6.201938
  O       4.255168      5.536116      5.513522
  H       3.648272      5.183167      4.808613
  H       1.829636      8.365560      0.678559
  O       1.472332      8.642570     -0.197097
  H       2.256254      8.627737     -0.775040
  H       3.716781      7.083864     -1.220171
  O       3.920412      8.018966     -1.451244
  H       4.291096      7.916123     -2.346402
  H       0.620605      7.086487      7.676889
  O      -0.291867      7.170875      7.999221
  H      -0.817110      7.128713      7.161095
  H       2.723145      6.484821      6.126237
  O       1.757975      6.529305      6.249383
  H       1.487809      5.583127      6.191204
  H       4.993477      8.454055      0.048409
  O       5.299445      8.461618      0.977019
  H       5.589887      7.547396      1.113779
  H       0.261798      8.669948      4.267399
  O       0.990683      8.074463      4.037018
  H       1.134096      7.480883      4.803901
  H       3.708048      8.219664      1.815930
  O       2.874442      7.721778      1.961363
  H       2.476186      8.002885      2.798692
  S       4.081431      9.822608      5.040621
  H       4.628646      8.629679      4.729598
  H       2.826290      9.352388      4.864101
