33
Coordinates from ORCA-job neb_204_207_CI_MEP.QMRegion E -2131.023772210132
  H       0.296540      6.832742      2.693032
  O      -0.010360      6.582920      1.804328
  H       0.640556      5.900362      1.522717
  H      -0.733346      8.781102     -2.293566
  O      -0.644584      9.633584     -1.798908
  H       0.131540      9.506388     -1.222970
  H      -1.975816      9.611225     -0.768210
  O      -2.822555      9.465601     -0.264524
  H      -3.485943      9.984062     -0.728479
  H      -2.491182      8.726425      1.310085
  O      -2.295460      8.130794      2.056488
  H      -1.588929      7.525301      1.760819
  H      -1.905701      8.873854      3.510085
  O      -1.640025      9.257576      4.385915
  H      -2.480392      9.305023      4.887791
  H       1.878406      8.385977      0.583469
  O       1.534779      8.648110     -0.301223
  H       2.325624      8.607315     -0.870026
  H       3.769615      7.061778     -1.237632
  O       4.008710      7.988753     -1.467843
  H       4.359695      7.873065     -2.370726
  H       5.077785      8.416810      0.048408
  O       5.377376      8.426577      0.978716
  H       5.633794      7.503625      1.128478
  H       0.443955      8.637544      4.348033
  O       1.124651      7.999162      4.088853
  H       1.349078      7.517750      4.916138
  H       3.760775      8.208503      1.798940
  O       2.903735      7.741847      1.906722
  H       2.530791      7.941583      2.781208
  S      -0.293091     11.392512      1.743298
  H      -0.881896     10.946847      2.876416
  H       0.821187     10.667572      1.969279
33
Coordinates from ORCA-job neb_204_207_CI_MEP.QMRegion E -2131.021564279417
  H       0.256368      6.814573      2.700270
  O      -0.039413      6.576657      1.804000
  H       0.615468      5.898946      1.521080
  H      -0.746289      8.776003     -2.286794
  O      -0.667042      9.625172     -1.783528
  H       0.113936      9.507216     -1.211102
  H      -1.989515      9.604280     -0.785857
  O      -2.830024      9.481237     -0.260143
  H      -3.500181      9.990073     -0.725353
  H      -2.538619      8.715090      1.292600
  O      -2.317284      8.146638      2.052896
  H      -1.629145      7.521517      1.755832
  H      -1.921562      8.896303      3.523068
  O      -1.645732      9.253846      4.402670
  H      -2.483954      9.300096      4.908548
  H       1.839227      8.358795      0.597765
  O       1.511281      8.624086     -0.291501
  H       2.308446      8.582094     -0.851222
  H       3.751059      7.049080     -1.231811
  O       3.986161      7.978835     -1.457974
  H       4.340530      7.868003     -2.359785
  H       5.027720      8.402273      0.073987
  O       5.320123      8.420870      1.006681
  H       5.594259      7.503277      1.159816
  H       0.405639      8.611669      4.355482
  O       1.083360      7.970631      4.092709
  H       1.317278      7.493473      4.919972
  H       3.706677      8.179048      1.828681
  O       2.855722      7.700073      1.925117
  H       2.467935      7.891384      2.795912
  S       0.620109     11.698925      1.594034
  H      -0.178290     11.116032      2.513549
  H       1.665505     10.910971      1.919055
33
Coordinates from ORCA-job neb_204_207_CI_MEP.QMRegion E -2131.020252538548
  H       0.256867      6.813869      2.701524
  O      -0.037892      6.577560      1.804371
  H       0.617046      5.899851      1.521260
  H      -0.740771      8.774674     -2.290749
  O      -0.655813      9.622672     -1.785729
  H       0.131482      9.500548     -1.222527
  H      -1.980192      9.599666     -0.793202
  O      -2.819823      9.484324     -0.264363
  H      -3.488750      9.994296     -0.730312
  H      -2.537272      8.714325      1.290928
  O      -2.313713      8.150527      2.053535
  H      -1.627620      7.522583      1.757614
  H      -1.914020      8.906894      3.530512
  O      -1.638757      9.253991      4.413015
  H      -2.478202      9.301979      4.916110
  H       1.844811      8.349945      0.603921
  O       1.514449      8.618039     -0.284119
  H       2.312364      8.584972     -0.843260
  H       3.757402      7.048111     -1.229951
  O       3.995043      7.978106     -1.452501
  H       4.348763      7.870056     -2.354869
  H       5.027606      8.405809      0.081804
  O       5.316379      8.429937      1.015684
  H       5.600626      7.516133      1.171681
  H       0.416154      8.614927      4.355735
  O       1.087275      7.967301      4.091918
  H       1.320143      7.490629      4.919873
  H       3.705545      8.174393      1.836860
  O       2.854884      7.694467      1.930066
  H       2.463634      7.882984      2.800415
  S       1.141064     11.850231      1.582516
  H       0.223713     11.109870      2.240635
  H       2.128159     10.978699      1.874061
33
Coordinates from ORCA-job neb_204_207_CI_MEP.QMRegion E -2131.020187367697
  H       0.269037      6.820033      2.704503
  O      -0.026183      6.583177      1.807502
  H       0.628925      5.905334      1.525122
  H      -0.714979      8.781437     -2.296599
  O      -0.622088      9.631205     -1.796538
  H       0.163836      9.502148     -1.232950
  H      -1.946041      9.602386     -0.795876
  O      -2.786730      9.492322     -0.269407
  H      -3.446470     10.019653     -0.729156
  H      -2.518938      8.733369      1.295737
  O      -2.302531      8.167863      2.058927
  H      -1.612803      7.543108      1.764992
  H      -1.886950      8.935566      3.541094
  O      -1.614550      9.265502      4.429988
  H      -2.456280      9.316621      4.926996
  H       1.858464      8.354066      0.616752
  O       1.525809      8.632040     -0.268857
  H       2.324207      8.604399     -0.827288
  H       3.768574      7.052317     -1.225841
  O       4.010518      7.982589     -1.441662
  H       4.363865      7.879864     -2.344595
  H       5.047013      8.404960      0.098403
  O       5.334521      8.423108      1.032646
  H       5.609216      7.505725      1.185393
  H       0.441067      8.634243      4.357505
  O       1.102479      7.977072      4.092975
  H       1.332373      7.500484      4.921750
  H       3.722353      8.177693      1.846587
  O       2.865427      7.707973      1.936565
  H       2.474133      7.898810      2.806965
  S       1.608858     11.942949      1.705930
  H       0.637532     11.043085      1.970617
  H       2.562147     10.989680      1.732516
33
Coordinates from ORCA-job neb_204_207_CI_MEP.QMRegion E -2131.020178878930
  H       0.262708      6.817964      2.703622
  O      -0.029209      6.580562      1.805286
  H       0.626066      5.901651      1.526072
  H      -0.726833      8.774558     -2.301879
  O      -0.623132      9.619721     -1.794399
  H       0.162238      9.472957     -1.234849
  H      -1.955895      9.598726     -0.797601
  O      -2.796033      9.489756     -0.271563
  H      -3.459132     10.007819     -0.737070
  H      -2.521201      8.723608      1.295977
  O      -2.304457      8.159601      2.059308
  H      -1.617090      7.532129      1.766040
  H      -1.887315      8.935703      3.545311
  O      -1.619644      9.261852      4.435895
  H      -2.463848      9.309338      4.929376
  H       1.867529      8.330044      0.621773
  O       1.536261      8.630731     -0.258686
  H       2.332867      8.599453     -0.820486
  H       3.773725      7.046197     -1.225281
  O       4.014139      7.977057     -1.441350
  H       4.366852      7.874592     -2.344858
  H       5.033246      8.410060      0.097839
  O       5.314336      8.446003      1.033778
  H       5.614613      7.539050      1.197997
  H       0.459170      8.637705      4.343517
  O       1.100621      7.959167      4.084276
  H       1.328431      7.490838      4.918179
  H       3.705199      8.167770      1.852611
  O       2.855481      7.686059      1.938751
  H       2.453841      7.878280      2.805612
  S       2.027106     11.902843      1.805331
  H       1.060159     10.986694      1.591799
  H       2.992687     10.966763      1.710351
33
Coordinates from ORCA-job neb_204_207_CI_MEP.QMRegion E -2131.021348239454
  H       0.263832      6.817504      2.700588
  O      -0.028692      6.577443      1.802506
  H       0.626306      5.897523      1.526065
  H      -0.715008      8.774993     -2.305802
  O      -0.603495      9.620348     -1.800036
  H       0.173795      9.462457     -1.232963
  H      -1.934645      9.596547     -0.795186
  O      -2.777393      9.491246     -0.273937
  H      -3.431887     10.020645     -0.739014
  H      -2.512511      8.726576      1.299653
  O      -2.303045      8.159130      2.062081
  H      -1.614031      7.532879      1.770030
  H      -1.876604      8.944208      3.551959
  O      -1.613724      9.264494      4.445163
  H      -2.460765      9.310682      4.933623
  H       1.872845      8.326128      0.636866
  O       1.543319      8.643499     -0.240773
  H       2.339801      8.610745     -0.802942
  H       3.772451      7.045497     -1.220255
  O       4.016613      7.975879     -1.435802
  H       4.370233      7.872071     -2.338601
  H       5.038530      8.399680      0.102288
  O       5.321362      8.440673      1.038030
  H       5.611202      7.532262      1.209299
  H       0.497693      8.645046      4.325129
  O       1.111044      7.939800      4.070760
  H       1.334123      7.478648      4.909590
  H       3.702864      8.168521      1.854848
  O       2.857787      7.679786      1.937997
  H       2.449249      7.879230      2.801397
  S       2.341880     11.702968      1.891366
  H       1.516779     10.872912      1.219248
  H       3.408529     10.924134      1.620733
33
Coordinates from ORCA-job neb_204_207_CI_MEP.QMRegion E -2131.022889696156
  H       0.246484      6.826500      2.710377
  O      -0.038165      6.582831      1.810830
  H       0.620734      5.904680      1.540395
  H      -0.728396      8.770241     -2.296585
  O      -0.621603      9.612556     -1.784895
  H       0.151826      9.452835     -1.213228
  H      -1.966690      9.599977     -0.795336
  O      -2.806646      9.486197     -0.271729
  H      -3.471257     10.002152     -0.737250
  H      -2.533286      8.734668      1.307561
  O      -2.319052      8.173292      2.073225
  H      -1.636180      7.541162      1.781577
  H      -1.889156      8.960018      3.562267
  O      -1.623522      9.274043      4.456750
  H      -2.469836      9.314012      4.947309
  H       1.856618      8.312582      0.643914
  O       1.547812      8.639853     -0.238755
  H       2.345512      8.574631     -0.797790
  H       3.772106      7.034720     -1.215353
  O       4.006044      7.969772     -1.425129
  H       4.358714      7.876593     -2.329527
  H       5.012231      8.405496      0.106522
  O       5.288481      8.480366      1.041631
  H       5.596573      7.584394      1.244696
  H       0.459835      8.658031      4.341681
  O       1.077870      7.957145      4.085953
  H       1.311832      7.498190      4.922697
  H       3.646280      8.190078      1.879702
  O       2.827091      7.663037      1.958223
  H       2.394100      7.883663      2.805195
  S       2.956063     11.448732      1.672188
  H       2.305318     10.669848      0.779468
  H       4.090923     10.733503      1.540568
