15
Coordinates from ORCA-job neb_106_111_CI_MEP.QMRegion E -1703.021018808745
  H      -2.489947      2.844900     10.579140
  O      -2.282571      1.947663     10.259527
  H      -2.865330      1.829176      9.491805
  H      -0.054292      3.369989      8.944137
  O       0.208618      2.481792      9.257791
  H      -0.598779      2.181070      9.732631
  H      -1.980807      5.227922     10.497053
  O      -2.723023      4.699232     10.848813
  H      -2.870922      5.093271     11.721800
  H       0.317625      6.065884     10.578033
  O      -0.530086      6.499930     10.436705
  H      -0.427795      6.939921      9.565653
  S      -2.277153      6.992199     13.364239
  H      -1.498089      7.271753     12.295359
  H      -1.243480      6.459389     14.048160
15
Coordinates from ORCA-job neb_106_111_CI_MEP.QMRegion E -1703.019320651548
  H      -2.471317      3.006924     10.427429
  O      -2.288717      2.080893     10.175575
  H      -2.866914      1.923108      9.410866
  H      -0.024670      3.428294      8.889549
  O       0.228658      2.545092      9.230141
  H      -0.595538      2.273020      9.693204
  H      -1.959920      5.382347     10.435035
  O      -2.688224      4.796754     10.726059
  H      -2.868759      5.090691     11.633229
  H       0.326486      6.176641     10.536646
  O      -0.523662      6.622197     10.457494
  H      -0.462289      7.048374      9.576761
  S      -2.365031      5.829299     13.870810
  H      -1.305100      6.389697     13.250191
  H      -1.702785      4.679300     14.126042
15
Coordinates from ORCA-job neb_106_111_CI_MEP.QMRegion E -1703.018915527367
  H      -2.466430      2.921235     10.451548
  O      -2.292334      1.992331     10.203704
  H      -2.871123      1.846536      9.436739
  H      -0.045987      3.414821      8.928807
  O       0.219060      2.526484      9.246193
  H      -0.597206      2.224462      9.703612
  H      -1.961970      5.316938     10.458027
  O      -2.694719      4.717781     10.711803
  H      -2.903618      4.969567     11.624143
  H       0.338250      6.121696     10.546488
  O      -0.525626      6.534889     10.446016
  H      -0.451016      6.994296      9.583666
  S      -2.384192      5.354179     13.999680
  H      -1.215272      5.844701     13.539959
  H      -1.884636      4.102454     14.072427
15
Coordinates from ORCA-job neb_106_111_CI_MEP.QMRegion E -1703.018939338726
  H      -2.482554      2.948301     10.401416
  O      -2.314439      2.010531     10.177540
  H      -2.885260      1.849028      9.407171
  H      -0.054022      3.384453      8.923164
  O       0.199851      2.493348      9.241380
  H      -0.626253      2.196468      9.687203
  H      -1.954333      5.319178     10.470192
  O      -2.686550      4.719540     10.729442
  H      -2.826755      4.906022     11.670563
  H       0.292647      6.073012     10.570634
  O      -0.554478      6.515299     10.454989
  H      -0.459898      6.962828      9.588908
  S      -2.399095      4.753166     14.060464
  H      -1.123720      5.099060     13.786218
  H      -2.147265      3.440692     13.862039
15
Coordinates from ORCA-job neb_106_111_CI_MEP.QMRegion E -1703.018924074299
  H      -2.489721      2.926581     10.376905
  O      -2.326513      1.982341     10.177235
  H      -2.895329      1.808966      9.407274
  H      -0.062651      3.373463      8.935744
  O       0.194499      2.480948      9.246935
  H      -0.630082      2.172688      9.686970
  H      -1.958340      5.301687     10.481019
  O      -2.698285      4.698046     10.709408
  H      -2.852923      4.838632     11.654924
  H       0.297294      6.062390     10.598104
  O      -0.557393      6.481516     10.455454
  H      -0.452194      6.931691      9.592257
  S      -2.483241      4.121670     14.026068
  H      -1.157610      4.302765     13.849983
  H      -2.438293      2.872764     13.513865
15
Coordinates from ORCA-job neb_106_111_CI_MEP.QMRegion E -1703.019144890090
  H      -2.488491      2.903280     10.325993
  O      -2.336767      1.950326     10.154861
  H      -2.907371      1.763576      9.388393
  H      -0.062214      3.337023      8.931087
  O       0.193196      2.443619      9.239732
  H      -0.630768      2.128544      9.675625
  H      -1.960432      5.259474     10.516535
  O      -2.700756      4.644154     10.712513
  H      -2.856840      4.718877     11.664118
  H       0.284130      6.025879     10.626438
  O      -0.571717      6.433942     10.461188
  H      -0.456084      6.881096      9.598134
  S      -2.606224      3.424222     13.886899
  H      -1.258674      3.455596     13.825797
  H      -2.667595      2.351493     13.069321
15
Coordinates from ORCA-job neb_106_111_CI_MEP.QMRegion E -1703.019528742619
  H      -2.461593      2.941735     10.322253
  O      -2.341196      1.981723     10.147205
  H      -2.912298      1.809893      9.376971
  H      -0.058471      3.376958      8.939863
  O       0.202075      2.484008      9.248857
  H      -0.618075      2.167313      9.684598
  H      -1.960788      5.263767     10.643390
  O      -2.689207      4.622028     10.798325
  H      -2.784727      4.542050     11.756083
  H       0.254506      6.073661     10.698427
  O      -0.606358      6.458293     10.505697
  H      -0.484289      6.893490      9.638605
  S      -2.814852      2.397937     13.516967
  H      -1.487354      2.201506     13.659757
  H      -2.820783      1.791595     12.305515
