33
Coordinates from ORCA-job neb_40_318_CI_MEP.QMRegion E -2131.007489289331
  H       7.889819     -1.757113     -4.058271
  O       7.749225     -1.408912     -3.141736
  H       7.276520     -0.549724     -3.281514
  H       8.117133     -1.424062     -6.078373
  O       8.108208     -2.293302     -5.631226
  H       7.210521     -2.624200     -5.864915
  H       7.644391      1.022873     -6.603420
  O       7.410784      0.130256     -6.883627
  H       6.423376      0.117463     -6.833357
  H       9.553292      0.523890     -0.377339
  O       8.603715      0.421346     -0.206047
  H       8.491788     -0.492347      0.109879
  H       6.066688      1.958777     -0.384479
  O       6.639549      2.141129     -1.148226
  H       7.445087      1.639793     -0.901560
  H       6.464407      1.420154     -4.207756
  O       6.260488      0.761513     -3.512297
  H       6.201151      1.257546     -2.668680
  H       9.554930     -2.339913     -0.822528
  O       9.913332     -2.202165     -1.715045
  H       9.179209     -1.733879     -2.179909
  H       9.986865     -3.529246     -3.057166
  O       9.831260     -4.168611     -3.779126
  H       9.387635     -3.662027     -4.472513
  H       6.791217      3.422042     -4.616081
  O       6.857701      2.765488     -5.341198
  H       6.022095      2.886817     -5.825216
  H       5.230969      4.262124     -3.135535
  O       6.195134      4.309168     -3.070144
  H       6.407231      3.774300     -2.286330
  S      11.833685      0.482786     -1.313279
  H      11.281362     -0.739446     -1.566434
  H      11.435450      0.968342     -2.508264
33
Coordinates from ORCA-job neb_40_318_CI_MEP.QMRegion E -2131.003592206472
  H       7.932110     -1.805968     -4.016391
  O       7.788811     -1.437246     -3.109245
  H       7.303438     -0.586365     -3.261316
  H       8.161250     -1.510171     -6.029309
  O       8.139390     -2.377774     -5.582963
  H       7.237433     -2.691222     -5.821147
  H       7.656677      0.960458     -6.521128
  O       7.416279      0.069418     -6.798513
  H       6.428392      0.070928     -6.773893
  H       9.533827      0.399503     -0.624158
  O       8.691558      0.400293     -0.150675
  H       8.546568     -0.524313      0.121735
  H       6.128388      1.906885     -0.325098
  O       6.697801      2.092756     -1.092597
  H       7.507754      1.593711     -0.849870
  H       6.468171      1.391746     -4.133924
  O       6.281850      0.713593     -3.451106
  H       6.235323      1.193538     -2.596751
  H       9.667290     -2.335895     -0.775537
  O       9.987221     -2.160919     -1.674157
  H       9.202157     -1.766045     -2.115983
  H      10.060251     -3.540143     -2.938316
  O       9.919339     -4.180088     -3.666322
  H       9.505548     -3.669243     -4.374014
  H       6.747931      3.393703     -4.489995
  O       6.846873      2.745748     -5.221719
  H       6.033325      2.869222     -5.740522
  H       5.223832      4.235819     -3.002704
  O       6.188901      4.266751     -2.949234
  H       6.406526      3.706252     -2.183559
  S      11.224425      1.163538     -2.607108
  H      11.005314     -0.147557     -2.840642
  H      10.321106      1.548764     -3.533962
33
Coordinates from ORCA-job neb_40_318_CI_MEP.QMRegion E -2131.003399205178
  H       7.902961     -1.811217     -4.044063
  O       7.765436     -1.440145     -3.136814
  H       7.273845     -0.592135     -3.283106
  H       8.152674     -1.523251     -6.049158
  O       8.128137     -2.389343     -5.600519
  H       7.223527     -2.699416     -5.835779
  H       7.649660      0.956054     -6.555697
  O       7.406817      0.059660     -6.811711
  H       6.418479      0.062597     -6.781673
  H       9.457675      0.329082     -0.731993
  O       8.639168      0.367681     -0.222351
  H       8.499264     -0.542103      0.099730
  H       6.081872      1.904635     -0.342190
  O       6.642877      2.088628     -1.115948
  H       7.453104      1.585242     -0.884791
  H       6.443663      1.391095     -4.152939
  O       6.261589      0.712155     -3.469451
  H       6.196200      1.191526     -2.615812
  H       9.622530     -2.354859     -0.783685
  O       9.948397     -2.175426     -1.679165
  H       9.167669     -1.780151     -2.126060
  H      10.031552     -3.536569     -2.955250
  O       9.895473     -4.178395     -3.683153
  H       9.465530     -3.675623     -4.387093
  H       6.717692      3.388147     -4.497733
  O       6.833468      2.742796     -5.230176
  H       6.023475      2.860056     -5.756374
  H       5.186246      4.240919     -3.034318
  O       6.151352      4.255213     -2.971232
  H       6.353064      3.690555     -2.204062
  S      10.859671      1.235248     -3.036825
  H      10.537242     -0.034229     -3.353623
  H       9.883545      1.742070     -3.819330
33
Coordinates from ORCA-job neb_40_318_CI_MEP.QMRegion E -2131.003384561086
  H       7.903696     -1.813262     -4.064347
  O       7.771703     -1.439202     -3.157072
  H       7.278199     -0.591628     -3.299966
  H       8.179541     -1.539456     -6.069866
  O       8.137895     -2.400345     -5.614009
  H       7.229993     -2.699671     -5.850646
  H       7.681400      0.950523     -6.601588
  O       7.417616      0.052386     -6.827442
  H       6.430346      0.069922     -6.786067
  H       9.448500      0.262427     -0.790358
  O       8.628808      0.340861     -0.289558
  H       8.481361     -0.550681      0.077749
  H       6.072916      1.909440     -0.353412
  O       6.629102      2.098276     -1.129224
  H       7.442177      1.596591     -0.909095
  H       6.452587      1.395866     -4.167937
  O       6.268941      0.716537     -3.485021
  H       6.196227      1.197070     -2.632822
  H       9.622509     -2.358205     -0.791334
  O       9.954521     -2.168168     -1.682135
  H       9.172302     -1.785972     -2.135879
  H      10.043777     -3.534591     -2.973373
  O       9.894412     -4.180922     -3.693687
  H       9.469346     -3.679014     -4.401266
  H       6.719821      3.400053     -4.505544
  O       6.845447      2.754332     -5.236602
  H       6.036864      2.864023     -5.766558
  H       5.183564      4.251003     -3.058382
  O       6.148452      4.263744     -2.989366
  H       6.344400      3.700472     -2.219829
  S      10.559044      1.255601     -3.531663
  H       9.985221      0.044879     -3.644588
  H       9.493868      1.872479     -4.081186
33
Coordinates from ORCA-job neb_40_318_CI_MEP.QMRegion E -2131.003373258615
  H       7.886158     -1.820235     -4.064112
  O       7.748363     -1.439211     -3.158246
  H       7.242039     -0.600079     -3.307014
  H       8.185080     -1.575523     -6.052616
  O       8.124357     -2.431527     -5.589037
  H       7.215606     -2.718930     -5.837941
  H       7.721897      0.878595     -6.601492
  O       7.409054     -0.002201     -6.829816
  H       6.423940      0.053849     -6.784900
  H       9.461173      0.159100     -0.733388
  O       8.614687      0.298759     -0.295908
  H       8.420734     -0.575542      0.094315
  H       6.062793      1.895273     -0.341989
  O       6.612174      2.086252     -1.122664
  H       7.427702      1.587669     -0.911657
  H       6.426367      1.396174     -4.164645
  O       6.249399      0.711646     -3.483034
  H       6.165062      1.187163     -2.630256
  H       9.597346     -2.351917     -0.803340
  O       9.934060     -2.140719     -1.687576
  H       9.143870     -1.783038     -2.149361
  H      10.031275     -3.528716     -2.991720
  O       9.874026     -4.179529     -3.704484
  H       9.433918     -3.683635     -4.408131
  H       6.661555      3.399981     -4.473093
  O       6.813674      2.755794     -5.201052
  H       6.020704      2.858263     -5.755542
  H       5.142748      4.253049     -3.035581
  O       6.107704      4.257035     -2.965212
  H       6.300529      3.687677     -2.199871
  S      10.378130      1.198806     -4.318398
  H       9.733142      0.226265     -3.639037
  H       9.272898      1.970029     -4.369024
33
Coordinates from ORCA-job neb_40_318_CI_MEP.QMRegion E -2131.003371566623
  H       7.864484     -1.793400     -4.100507
  O       7.713127     -1.425254     -3.191447
  H       7.220931     -0.578438     -3.336795
  H       8.172156     -1.535762     -6.094939
  O       8.125358     -2.392089     -5.626978
  H       7.219005     -2.691951     -5.869117
  H       7.784693      0.865026     -6.643595
  O       7.420347      0.010037     -6.894074
  H       6.439859      0.094170     -6.817994
  H       9.416395      0.103098     -0.816089
  O       8.605342      0.304860     -0.334870
  H       8.396224     -0.548807      0.090462
  H       6.042342      1.912698     -0.361922
  O       6.594500      2.108670     -1.138697
  H       7.407629      1.605125     -0.931104
  H       6.426397      1.438839     -4.199423
  O       6.244797      0.753024     -3.520691
  H       6.155467      1.226613     -2.668125
  H       9.573332     -2.286887     -0.867453
  O       9.914147     -2.039974     -1.740751
  H       9.113609     -1.718138     -2.216943
  H      10.008375     -3.474269     -3.040296
  O       9.840454     -4.142198     -3.732959
  H       9.396540     -3.660486     -4.444523
  H       6.643075      3.458418     -4.490123
  O       6.813000      2.824606     -5.222967
  H       6.019660      2.910575     -5.779833
  H       5.130132      4.279042     -3.051504
  O       6.094948      4.293415     -2.976706
  H       6.290301      3.723826     -2.212754
  S      10.267483      1.374618     -4.904184
  H       9.788681      0.605372     -3.903443
  H       9.308827      2.305495     -4.724718
33
Coordinates from ORCA-job neb_40_318_CI_MEP.QMRegion E -2131.003658303445
  H       7.819965     -1.796537     -4.147709
  O       7.669596     -1.421466     -3.241425
  H       7.182361     -0.571934     -3.381600
  H       8.168180     -1.591299     -6.137908
  O       8.110129     -2.436320     -5.651494
  H       7.197119     -2.723105     -5.889665
  H       7.909935      0.775181     -6.712981
  O       7.444758     -0.040190     -6.934921
  H       6.478127      0.118634     -6.830688
  H       9.337499      0.037965     -0.887497
  O       8.542822      0.260098     -0.388588
  H       8.347732     -0.576680      0.076116
  H       6.010624      1.918736     -0.379688
  O       6.571186      2.105682     -1.151967
  H       7.373391      1.585586     -0.940371
  H       6.419435      1.487575     -4.209924
  O       6.236797      0.785729     -3.548905
  H       6.146172      1.242649     -2.687066
  H       9.477036     -2.350163     -0.888888
  O       9.821042     -2.126316     -1.767126
  H       9.035690     -1.774419     -2.246775
  H       9.944851     -3.505143     -3.074930
  O       9.797855     -4.169787     -3.776672
  H       9.326176     -3.697548     -4.477295
  H       6.604791      3.541746     -4.424652
  O       6.800068      2.928121     -5.170482
  H       6.022961      3.005218     -5.750010
  H       5.134198      4.307879     -2.981173
  O       6.098965      4.335588     -2.911498
  H       6.307963      3.739809     -2.170719
  S      10.017310      1.572768     -5.277146
  H       9.518824      0.792958     -4.293834
  H       9.035154      2.485148     -5.120632
