18
Coordinates from ORCA-job neb_132_299_CI_MEP.QMRegion E -1774.356808394207
  H      -0.686754      4.542252     -4.019098
  O      -1.477858      5.081342     -4.227363
  H      -1.325805      5.937610     -3.776783
  H      -2.121570      6.504445     -6.832914
  O      -2.117974      5.555062     -6.691474
  H      -1.790237      5.415361     -5.744125
  H       0.762718      2.970962     -7.182085
  O       1.693915      2.670044     -7.195465
  H       1.707616      1.891684     -7.789012
  H      -1.584678      3.643716     -7.124923
  O      -1.000100      2.951116     -6.793014
  H      -1.182140      2.112571     -7.289385
  H      -0.239726      0.339580     -8.201577
  O      -1.146578      0.544130     -7.921329
  H      -1.263849      0.042279     -7.092277
  S       0.511719      5.795912     -9.148469
  H       1.490691      5.112661     -8.519463
  H      -0.353133      5.581531     -8.129479
18
Coordinates from ORCA-job neb_132_299_CI_MEP.QMRegion E -1774.356445999163
  H      -0.648889      4.570025     -3.985470
  O      -1.443874      5.103509     -4.193584
  H      -1.297428      5.968601     -3.755239
  H      -1.859753      6.326945     -6.979780
  O      -2.083944      5.452647     -6.654450
  H      -1.759873      5.396175     -5.694661
  H       0.839437      3.013949     -7.107696
  O       1.763501      2.691239     -7.172388
  H       1.745234      1.917440     -7.767534
  H      -1.430109      3.764087     -6.937747
  O      -0.864186      3.014338     -6.686140
  H      -1.095226      2.199172     -7.200416
  H      -0.178061      0.408338     -8.117069
  O      -1.078446      0.636943     -7.832837
  H      -1.216449      0.114366     -7.018686
  S      -0.489417      5.222574    -10.044162
  H       0.594061      5.009661     -9.266639
  H      -1.292546      4.588451     -9.163949
18
Coordinates from ORCA-job neb_132_299_CI_MEP.QMRegion E -1774.355905316196
  H      -0.664132      4.557603     -3.993740
  O      -1.459807      5.091111     -4.199415
  H      -1.309640      5.953857     -3.760527
  H      -1.968191      6.348071     -6.966402
  O      -2.109259      5.446584     -6.671744
  H      -1.781355      5.387085     -5.717113
  H       0.819063      2.995826     -7.142695
  O       1.743373      2.675221     -7.181890
  H       1.735556      1.896499     -7.772562
  H      -1.490172      3.709488     -7.004807
  O      -0.914686      2.975020     -6.736651
  H      -1.133514      2.148551     -7.236038
  H      -0.188392      0.363563     -8.150173
  O      -1.095912      0.576254     -7.875405
  H      -1.224714      0.068347     -7.050811
  S      -0.960576      4.809878    -10.367023
  H       0.119627      4.915550     -9.570630
  H      -1.569719      3.985829     -9.490720
18
Coordinates from ORCA-job neb_132_299_CI_MEP.QMRegion E -1774.355785123569
  H      -0.673885      4.539875     -4.013069
  O      -1.467191      5.075871     -4.223993
  H      -1.318684      5.937030     -3.783054
  H      -1.955764      6.320491     -6.986387
  O      -2.109468      5.417819     -6.702832
  H      -1.784184      5.350761     -5.746743
  H       0.827005      2.979109     -7.168493
  O       1.747492      2.649369     -7.189550
  H       1.740177      1.871753     -7.783131
  H      -1.478902      3.697780     -7.035932
  O      -0.913125      2.962529     -6.750439
  H      -1.130213      2.136376     -7.249974
  H      -0.205318      0.355943     -8.168766
  O      -1.113222      0.566480     -7.893975
  H      -1.238998      0.061759     -7.067021
  S      -1.229915      4.198926    -10.616681
  H      -0.496043      4.874501     -9.707136
  H      -1.741406      3.387569     -9.668111
18
Coordinates from ORCA-job neb_132_299_CI_MEP.QMRegion E -1774.355991381593
  H      -0.688519      4.529483     -3.986104
  O      -1.486308      5.062342     -4.189714
  H      -1.331675      5.928239     -3.759545
  H      -1.934060      6.334642     -6.913051
  O      -2.107129      5.423675     -6.670251
  H      -1.796325      5.325264     -5.709541
  H       0.837905      2.997548     -7.166033
  O       1.751039      2.649210     -7.168017
  H       1.744264      1.882523     -7.773959
  H      -1.461391      3.689657     -7.030947
  O      -0.911440      2.953953     -6.721625
  H      -1.120449      2.129231     -7.225176
  H      -0.202539      0.347121     -8.144095
  O      -1.114409      0.558376     -7.882765
  H      -1.249933      0.056959     -7.054729
  S      -1.017684      3.894603    -10.519375
  H      -1.553345      4.920659     -9.824245
  H      -1.675114      2.982050     -9.774964
18
Coordinates from ORCA-job neb_132_299_CI_MEP.QMRegion E -1774.356385439466
  H      -0.714611      4.476176     -3.968276
  O      -1.519387      5.005483     -4.156537
  H      -1.356759      5.871757     -3.734791
  H      -1.947749      6.282486     -6.893655
  O      -2.125269      5.373797     -6.645696
  H      -1.829005      5.276833     -5.682862
  H       0.810244      2.947357     -7.144662
  O       1.733394      2.622499     -7.169554
  H       1.725031      1.842892     -7.760150
  H      -1.455933      3.642762     -7.031537
  O      -0.914897      2.905249     -6.707741
  H      -1.122892      2.081847     -7.208402
  H      -0.187559      0.269804     -8.128748
  O      -1.104102      0.489067     -7.891024
  H      -1.259189     -0.001235     -7.059462
  S      -1.411748      3.776951    -10.311779
  H      -2.644754      4.156763     -9.921721
  H      -1.578870      2.536412     -9.811503
18
Coordinates from ORCA-job neb_132_299_CI_MEP.QMRegion E -1774.359643570697
  H      -0.646786      4.557350     -4.016228
  O      -1.437267      5.093824     -4.234764
  H      -1.293915      5.956347     -3.795279
  H      -1.841001      6.207742     -7.083091
  O      -2.095446      5.358719     -6.718910
  H      -1.762114      5.333426     -5.765589
  H       0.872101      3.008839     -7.143368
  O       1.791370      2.670924     -7.177504
  H       1.779211      1.906647     -7.782961
  H      -1.381447      3.695552     -7.046639
  O      -0.841918      2.957761     -6.709829
  H      -1.036816      2.149717     -7.234737
  H      -0.093442      0.330399     -8.144013
  O      -1.014803      0.532271     -7.901561
  H      -1.170139      0.039274     -7.073256
  S      -2.525070      2.852132    -10.018490
  H      -3.679933      2.745261     -9.328010
  H      -2.063843      1.687587     -9.514422
