27
Coordinates from ORCA-job neb_18_122_CI_MEP.QMRegion E -1988.359962458875
  H       4.387432     -2.521954      5.670895
  O       4.090931     -3.196866      6.320696
  H       4.442252     -4.045496      5.968956
  H       4.949025     -2.182165      3.578180
  O       4.963648     -1.503830      4.288178
  H       4.160604     -0.939887      4.127623
  H       1.996667     -0.899320      5.258620
  O       1.440637     -1.449036      5.839941
  H       1.460076     -1.053498      6.725658
  H       5.689316     -5.586895      4.594956
  O       5.149700     -5.566871      5.422019
  H       4.366103     -6.108456      5.240970
  H       4.377786     -0.361344      7.794216
  O       4.061722      0.150711      7.036374
  H       4.852053      0.583763      6.672587
  H       6.751215     -5.913780      2.600314
  O       6.828744     -5.277468      3.339826
  H       7.754563     -5.327414      3.663919
  H       7.266096     -3.147380      6.978121
  O       7.342786     -3.540234      6.097588
  H       6.629341     -4.193207      6.075790
  H       9.297232     -3.902807      3.849254
  O       9.297201     -4.692925      4.409739
  H       8.857323     -4.373520      5.219400
  S       5.682374     -2.238677      8.785147
  H       5.113888     -3.054902      9.696538
  H       4.911389     -2.752992      7.733115
27
Coordinates from ORCA-job neb_18_122_CI_MEP.QMRegion E -1988.355493387205
  H       4.471218     -2.606590      5.644865
  O       4.292867     -3.287292      6.326508
  H       4.518888     -4.160479      5.918879
  H       4.963992     -2.177252      3.552607
  O       4.976265     -1.507268      4.271157
  H       4.170972     -0.946308      4.123339
  H       2.016152     -0.884065      5.236452
  O       1.471028     -1.434087      5.830103
  H       1.493690     -1.029499      6.711249
  H       5.692070     -5.659351      4.668240
  O       5.121032     -5.683805      5.469370
  H       4.335636     -6.193028      5.217438
  H       4.471320     -0.442398      7.666751
  O       4.139346      0.160418      6.993694
  H       4.923873      0.598296      6.619927
  H       6.725755     -5.927939      2.620613
  O       6.806302     -5.293479      3.360996
  H       7.731068     -5.355739      3.679747
  H       7.583186     -2.555289      6.712711
  O       7.407204     -3.158111      5.985918
  H       6.498481     -3.462621      6.139347
  H       9.249120     -3.928529      3.817549
  O       9.299465     -4.714001      4.384100
  H       8.880011     -4.399927      5.201317
  S       5.826398     -2.812711      9.176270
  H       5.098832     -3.504490     10.074225
  H       5.077156     -3.229044      8.112769
27
Coordinates from ORCA-job neb_18_122_CI_MEP.QMRegion E -1988.354474613413
  H       4.550569     -2.626470      5.544485
  O       4.525376     -3.255269      6.297747
  H       4.626033     -4.165423      5.913044
  H       4.966012     -2.162351      3.514177
  O       4.968237     -1.499455      4.239687
  H       4.161954     -0.936640      4.098936
  H       2.027692     -0.879500      5.249122
  O       1.485802     -1.436041      5.840257
  H       1.485271     -1.019944      6.717014
  H       5.686824     -5.686679      4.701757
  O       5.111042     -5.725637      5.498206
  H       4.325544     -6.225481      5.230036
  H       4.435895     -0.609778      7.393493
  O       4.136689      0.174118      6.926893
  H       4.938069      0.597699      6.572046
  H       6.724923     -5.927524      2.634158
  O       6.788334     -5.290932      3.373390
  H       7.705568     -5.349923      3.714426
  H       7.636010     -2.423321      6.687026
  O       7.359306     -3.044514      6.008835
  H       6.395741     -3.166885      6.165641
  H       9.258493     -3.953588      3.901777
  O       9.243218     -4.725815      4.486812
  H       8.777678     -4.380761      5.266555
  S       6.177262     -3.735156      9.333659
  H       5.102579     -3.457288     10.100789
  H       5.414876     -3.867006      8.225906
27
Coordinates from ORCA-job neb_18_122_CI_MEP.QMRegion E -1988.354869437226
  H       4.562823     -2.671694      5.553210
  O       4.533973     -3.244797      6.347882
  H       4.621387     -4.172444      6.018678
  H       4.972933     -2.179475      3.522932
  O       4.974301     -1.516173      4.248240
  H       4.167871     -0.955318      4.106350
  H       2.033250     -0.896707      5.261486
  O       1.486622     -1.454241      5.846898
  H       1.483202     -1.043174      6.726159
  H       5.704366     -5.731128      4.793690
  O       5.125492     -5.780915      5.587767
  H       4.334068     -6.257679      5.293350
  H       4.384180     -0.754378      7.229980
  O       4.143418      0.129698      6.941108
  H       4.951867      0.527964      6.578406
  H       6.722309     -5.976322      2.671456
  O       6.792589     -5.348141      3.417599
  H       7.713291     -5.412555      3.747377
  H       7.719212     -2.615049      6.773378
  O       7.376418     -3.119772      6.031882
  H       6.421179     -3.231261      6.239883
  H       9.339774     -4.074224      3.979487
  O       9.247610     -4.837899      4.565871
  H       8.748101     -4.464526      5.312409
  S       6.424410     -4.439293      9.345012
  H       5.169483     -3.994163      9.560811
  H       6.050221     -5.093041      8.226226
27
Coordinates from ORCA-job neb_18_122_CI_MEP.QMRegion E -1988.355938857805
  H       4.623341     -2.650210      5.540913
  O       4.657936     -3.192792      6.358553
  H       4.711007     -4.132804      6.055723
  H       4.971154     -2.167903      3.507943
  O       4.964948     -1.505359      4.234060
  H       4.156406     -0.945840      4.091099
  H       2.030989     -0.890130      5.261709
  O       1.490749     -1.453575      5.847646
  H       1.478682     -1.038543      6.725397
  H       5.680891     -5.705348      4.773297
  O       5.123414     -5.759813      5.584059
  H       4.323014     -6.232125      5.306459
  H       4.339859     -0.785180      7.143765
  O       4.123825      0.122810      6.915517
  H       4.933733      0.516173      6.551524
  H       6.711788     -5.965265      2.676648
  O       6.761410     -5.331340      3.419596
  H       7.665574     -5.403424      3.791979
  H       7.711491     -2.196433      6.529901
  O       7.407772     -2.930245      5.989997
  H       6.458175     -3.054351      6.233501
  H       9.257474     -4.079686      4.103392
  O       9.176746     -4.865730      4.661937
  H       8.735786     -4.506652      5.448920
  S       6.752581     -5.384136      9.002039
  H       5.605555     -4.678711      8.916801
  H       6.519431     -5.964389      7.806855
27
Coordinates from ORCA-job neb_18_122_CI_MEP.QMRegion E -1988.357201067625
  H       4.587592     -2.594220      5.499573
  O       4.607963     -3.120759      6.329276
  H       4.676059     -4.063525      6.038844
  H       4.967069     -2.157628      3.484733
  O       4.955268     -1.490810      4.207400
  H       4.144819     -0.931922      4.063089
  H       2.023319     -0.886075      5.265952
  O       1.480550     -1.450109      5.848488
  H       1.463008     -1.034487      6.726207
  H       5.620920     -5.639189      4.755934
  O       5.065809     -5.695165      5.569224
  H       4.268390     -6.173238      5.293424
  H       4.275686     -0.798209      7.095605
  O       4.082298      0.119535      6.884758
  H       4.901573      0.505716      6.536239
  H       6.687575     -5.933198      2.679903
  O       6.707232     -5.292172      3.417226
  H       7.584430     -5.381255      3.850130
  H       7.510316     -1.765780      6.281350
  O       7.376418     -2.673528      5.995138
  H       6.428313     -2.857918      6.190610
  H       9.063679     -4.095518      4.605145
  O       9.010025     -5.024188      4.868168
  H       8.647481     -4.978544      5.766493
  S       7.405509     -5.916522      8.126654
  H       6.223181     -5.330667      7.853864
  H       7.049667     -7.008763      7.423644
27
Coordinates from ORCA-job neb_18_122_CI_MEP.QMRegion E -1988.360084110575
  H       4.545842     -2.484956      5.577899
  O       4.589961     -2.970865      6.433278
  H       4.680668     -3.917325      6.184660
  H       4.936778     -2.154368      3.510820
  O       4.926944     -1.478430      4.223870
  H       4.115082     -0.917476      4.070883
  H       2.012332     -0.913847      5.374211
  O       1.440049     -1.487785      5.911375
  H       1.381785     -1.086872      6.796371
  H       5.578918     -5.511353      4.763102
  O       5.066555     -5.590973      5.606503
  H       4.278538     -6.105791      5.369652
  H       4.158174     -0.793228      7.209893
  O       3.968836      0.095619      6.893084
  H       4.807783      0.471533      6.588062
  H       6.693188     -5.858265      2.713101
  O       6.646759     -5.215926      3.445075
  H       7.531654     -5.170447      3.878887
  H       7.364700     -1.408285      6.048691
  O       7.327528     -2.369657      6.022775
  H       6.396506     -2.592089      6.254081
  H       8.584775     -3.871694      5.365782
  O       8.856009     -4.722745      4.985428
  H       8.752281     -5.347734      5.722375
  S       7.762993     -7.082575      6.997700
  H       6.573419     -6.568698      6.575709
  H       7.907572     -7.805008      5.867954
