24
Coordinates from ORCA-job neb_25_115_CI_MEP.QMRegion E -1917.021823743945
  H      -3.500865      6.386074     -0.503779
  O      -3.279787      7.063860     -1.202989
  H      -3.090146      7.896395     -0.731528
  H      -1.743411      9.687737     -0.750394
  O      -2.574041      9.559979     -0.226704
  H      -3.173608     10.232385     -0.564967
  H      -2.260202      8.775833      1.372705
  O      -2.188326      8.115759      2.077031
  H      -1.403750      7.572857      1.870250
  H      -1.880412     10.335332     -2.864021
  O      -2.784918     10.494518     -3.172665
  H      -2.728697     11.314995     -3.670292
  H      -5.797418      7.271143     -4.293829
  O      -6.329751      6.683095     -4.864427
  H      -6.624037      5.956175     -4.261651
  H      -4.159812      9.000776     -3.330789
  O      -4.829066      8.330671     -3.125283
  H      -4.450529      7.849892     -2.359939
  H      -9.050148      7.905633     -4.173000
  O      -9.014014      7.393214     -4.992022
  H      -8.057597      7.210519     -5.084936
  S      -7.927523      9.816432     -2.766064
  H      -6.707679      9.223617     -2.717180
  H      -7.685257     10.310474     -3.998689
24
Coordinates from ORCA-job neb_25_115_CI_MEP.QMRegion E -1917.019304235143
  H      -3.499442      6.375856     -0.515649
  O      -3.282278      7.047619     -1.221279
  H      -3.102084      7.889248     -0.761142
  H      -1.756975      9.677231     -0.787359
  O      -2.590366      9.544155     -0.265741
  H      -3.195250     10.205439     -0.616740
  H      -2.261904      8.767149      1.351015
  O      -2.184497      8.116126      2.062762
  H      -1.400266      7.571907      1.856634
  H      -1.882465     10.299360     -2.965416
  O      -2.790784     10.433304     -3.272175
  H      -2.792701     11.317558     -3.648444
  H      -5.828231      7.272902     -4.299662
  O      -6.360489      6.684096     -4.873316
  H      -6.641906      5.951103     -4.272349
  H      -4.186418      8.954399     -3.388109
  O      -4.854584      8.296048     -3.148265
  H      -4.447909      7.813916     -2.400168
  H      -9.103481      7.913950     -4.140567
  O      -9.022189      7.421909     -4.965029
  H      -8.060090      7.244451     -5.033556
  S      -7.672219     10.153524     -2.314461
  H      -6.625858      9.356120     -2.010976
  H      -7.182349     10.342262     -3.557248
24
Coordinates from ORCA-job neb_25_115_CI_MEP.QMRegion E -1917.017623834330
  H      -3.492980      6.379694     -0.505797
  O      -3.276759      7.053496     -1.209513
  H      -3.093789      7.892732     -0.746648
  H      -1.753249      9.684784     -0.781330
  O      -2.580520      9.554477     -0.248928
  H      -3.190597     10.212672     -0.596018
  H      -2.254425      8.769366      1.361456
  O      -2.181993      8.114528      2.070335
  H      -1.397352      7.570376      1.865209
  H      -1.870644     10.290220     -2.978045
  O      -2.778690     10.408048     -3.291628
  H      -2.819602     11.322183     -3.584839
  H      -5.817559      7.275183     -4.286240
  O      -6.359448      6.691323     -4.857992
  H      -6.636117      5.955007     -4.259069
  H      -4.182085      8.943492     -3.386373
  O      -4.851821      8.285560     -3.150690
  H      -4.454877      7.814023     -2.391490
  H      -9.127992      7.901526     -4.144573
  O      -9.013566      7.416167     -4.967645
  H      -8.047061      7.246137     -5.011178
  S      -7.434718     10.415654     -2.046692
  H      -6.602077      9.451072     -1.605004
  H      -6.939637     10.288325     -3.294886
24
Coordinates from ORCA-job neb_25_115_CI_MEP.QMRegion E -1917.017396157328
  H      -3.502488      6.392345     -0.509534
  O      -3.290565      7.063519     -1.215597
  H      -3.099331      7.903750     -0.756816
  H      -1.763260      9.697417     -0.794963
  O      -2.590283      9.564906     -0.261880
  H      -3.207616     10.216312     -0.609450
  H      -2.261283      8.781695      1.353330
  O      -2.187113      8.125186      2.060689
  H      -1.403546      7.580632      1.853037
  H      -1.865439     10.288580     -3.004389
  O      -2.763077     10.396510     -3.348756
  H      -2.843324     11.335458     -3.536218
  H      -5.817255      7.272904     -4.293755
  O      -6.366861      6.692422     -4.861379
  H      -6.639200      5.953222     -4.263948
  H      -4.158779      8.943116     -3.409604
  O      -4.842525      8.296634     -3.181198
  H      -4.474052      7.838346     -2.400534
  H      -9.147268      7.898837     -4.121630
  O      -9.023756      7.421785     -4.947895
  H      -8.056171      7.256374     -4.989154
  S      -7.166767     10.596958     -1.850373
  H      -6.602887      9.529211     -1.252094
  H      -6.660191     10.215949     -3.039905
24
Coordinates from ORCA-job neb_25_115_CI_MEP.QMRegion E -1917.017947788599
  H      -3.488880      6.382342     -0.492019
  O      -3.275182      7.059322     -1.193144
  H      -3.081465      7.893221     -0.725631
  H      -1.759490      9.699617     -0.772584
  O      -2.575570      9.562454     -0.223848
  H      -3.209311     10.204253     -0.556093
  H      -2.248575      8.764636      1.376745
  O      -2.182905      8.106346      2.083038
  H      -1.398363      7.560916      1.879856
  H      -1.859710     10.250793     -2.998152
  O      -2.746651     10.336862     -3.375471
  H      -2.895126     11.284010     -3.438262
  H      -5.807967      7.270353     -4.262843
  O      -6.358925      6.693936     -4.834559
  H      -6.631065      5.951215     -4.241313
  H      -4.162501      8.924876     -3.362719
  O      -4.852911      8.282592     -3.138340
  H      -4.488762      7.825269     -2.354574
  H      -9.145388      7.882319     -4.118093
  O      -9.006023      7.408165     -4.942404
  H      -8.036180      7.243764     -4.967797
  S      -6.807519     10.733443     -1.574370
  H      -6.529262      9.603617     -0.895209
  H      -6.473765     10.135950     -2.736003
24
Coordinates from ORCA-job neb_25_115_CI_MEP.QMRegion E -1917.020252080907
  H      -3.488904      6.384563     -0.491275
  O      -3.276370      7.063819     -1.190391
  H      -3.074857      7.894456     -0.719558
  H      -1.773931      9.716932     -0.772361
  O      -2.581733      9.567283     -0.217187
  H      -3.240243     10.193387     -0.539590
  H      -2.250045      8.760818      1.377005
  O      -2.185725      8.101871      2.083190
  H      -1.402209      7.555158      1.879863
  H      -1.863676     10.223938     -3.009016
  O      -2.735725     10.306441     -3.420870
  H      -2.938751     11.244444     -3.370754
  H      -5.809297      7.275851     -4.251396
  O      -6.356785      6.699428     -4.825913
  H      -6.629555      5.954456     -4.235907
  H      -4.153959      8.919390     -3.346775
  O      -4.864761      8.299651     -3.116012
  H      -4.507662      7.836872     -2.331091
  H      -9.149777      7.876680     -4.103712
  O      -9.004079      7.407508     -4.930089
  H      -8.033436      7.247761     -4.952503
  S      -6.413019     10.805865     -1.321744
  H      -6.449673      9.715833     -0.528431
  H      -6.177829     10.032855     -2.406189
24
Coordinates from ORCA-job neb_25_115_CI_MEP.QMRegion E -1917.025856394084
  H      -3.526380      6.399931     -0.515383
  O      -3.325242      7.069931     -1.225769
  H      -3.107962      7.908792     -0.768072
  H      -1.814756      9.726279     -0.787943
  O      -2.606248      9.515195     -0.232420
  H      -3.314389     10.139437     -0.470698
  H      -2.286306      8.762971      1.355156
  O      -2.207490      8.123533      2.081042
  H      -1.426981      7.574657      1.877558
  H      -1.962129     10.139129     -3.101025
  O      -2.812663     10.248050     -3.548775
  H      -3.051996     11.163441     -3.376838
  H      -5.852107      7.272887     -4.233117
  O      -6.367068      6.696008     -4.835189
  H      -6.646380      5.942278     -4.258583
  H      -4.239689      8.932631     -3.348948
  O      -4.966769      8.357144     -3.050394
  H      -4.550898      7.839314     -2.327393
  H      -9.172817      7.897804     -4.212788
  O      -9.019585      7.390315     -5.014668
  H      -8.048824      7.232698     -5.020321
  S      -5.624330     10.848255     -0.892294
  H      -6.070982     10.062951      0.110684
  H      -5.648966      9.821791     -1.789930
