33
Coordinates from ORCA-job neb_287_345_CI_MEP.QMRegion E -2131.024064333657
  H      -2.366974     -3.645023      1.905088
  O      -2.400451     -4.560385      2.260893
  H      -1.454514     -4.801042      2.401140
  H      -4.625723     -5.162169     -1.600639
  O      -5.341562     -4.799148     -1.046416
  H      -5.142903     -5.149439     -0.159751
  H      -2.119192     -8.175276      0.531322
  O      -1.744931     -7.652874      1.273958
  H      -2.489332     -7.367366      1.806736
  H      -5.440833     -5.140864      1.818067
  O      -4.769524     -5.790149      1.491522
  H      -3.914403     -5.349086      1.667227
  H      -4.399865     -2.546157      4.121699
  O      -5.317811     -2.257626      3.950494
  H      -5.213668     -1.480112      3.352317
  H      -5.711708     -8.075616     -0.794782
  O      -4.971047     -8.159556     -0.148939
  H      -5.011528     -7.359215      0.401588
  H      -2.779856     -9.902161     -0.924849
  O      -2.665848     -8.951539     -1.008605
  H      -3.583282     -8.580891     -0.834480
  H      -2.013899     -3.045499      4.609887
  O      -2.897146     -3.477143      4.685494
  H      -2.882705     -4.045372      3.885330
  H      -5.346904     -2.003306      6.904315
  O      -6.018891     -1.489845      6.425336
  H      -5.978250     -1.832306      5.507960
  H      -3.675726     -3.710229      7.762055
  O      -3.737752     -2.908693      7.232994
  H      -3.442773     -3.190426      6.344210
  S      -3.710352     -6.358838      6.634717
  H      -4.824785     -6.047915      5.938233
  H      -2.944467     -5.596696      5.824723
33
Coordinates from ORCA-job neb_287_345_CI_MEP.QMRegion E -2131.022584014042
  H      -2.373246     -3.657754      1.928452
  O      -2.399730     -4.574798      2.278649
  H      -1.451574     -4.809355      2.412434
  H      -4.620908     -5.174016     -1.588158
  O      -5.336340     -4.813067     -1.031680
  H      -5.134759     -5.160140     -0.145255
  H      -2.107331     -8.207107      0.534189
  O      -1.740626     -7.678611      1.277018
  H      -2.490841     -7.392239      1.799892
  H      -5.439195     -5.140024      1.833006
  O      -4.771904     -5.804088      1.526946
  H      -3.912424     -5.369816      1.700821
  H      -4.403421     -2.549248      4.127941
  O      -5.322125     -2.261919      3.951503
  H      -5.215907     -1.485126      3.353577
  H      -5.710766     -8.087384     -0.789482
  O      -4.972671     -8.172831     -0.140728
  H      -5.013681     -7.370556      0.406506
  H      -2.779896     -9.925937     -0.922623
  O      -2.665987     -8.975004     -1.003775
  H      -3.582273     -8.604910     -0.824914
  H      -2.026120     -3.013818      4.612647
  O      -2.908621     -3.440919      4.707274
  H      -2.888462     -4.059036      3.950045
  H      -5.326334     -2.012285      6.911620
  O      -5.997319     -1.498108      6.433930
  H      -5.959374     -1.842222      5.516210
  H      -3.598467     -3.695816      7.838225
  O      -3.698082     -2.944807      7.248635
  H      -3.405205     -3.269412      6.370373
  S      -4.168877     -6.779203      6.060726
  H      -5.022856     -6.318712      5.122182
  H      -3.098119     -6.301908      5.391853
33
Coordinates from ORCA-job neb_287_345_CI_MEP.QMRegion E -2131.021953219064
  H      -2.373336     -3.656830      1.963896
  O      -2.393866     -4.577034      2.303638
  H      -1.444428     -4.807948      2.429735
  H      -4.612116     -5.173421     -1.574692
  O      -5.330861     -4.816774     -1.019335
  H      -5.122764     -5.150892     -0.130320
  H      -2.103268     -8.195186      0.547872
  O      -1.735001     -7.669710      1.291607
  H      -2.486988     -7.321811      1.774216
  H      -5.427124     -5.127347      1.851930
  O      -4.753805     -5.794239      1.563447
  H      -3.897599     -5.350334      1.738050
  H      -4.399522     -2.542060      4.135455
  O      -5.319878     -2.260484      3.955992
  H      -5.215177     -1.482935      3.359406
  H      -5.702091     -8.063384     -0.786544
  O      -4.961100     -8.141864     -0.140602
  H      -5.005012     -7.340851      0.408176
  H      -2.771663     -9.908147     -0.907029
  O      -2.653475     -8.958230     -0.994423
  H      -3.568012     -8.583161     -0.820238
  H      -2.019493     -2.986091      4.620252
  O      -2.906831     -3.392297      4.756067
  H      -2.899555     -4.084074      4.071475
  H      -5.313317     -2.003580      6.933310
  O      -5.983403     -1.498161      6.446093
  H      -5.940955     -1.849224      5.530891
  H      -3.496818     -3.647161      7.895588
  O      -3.672210     -2.930126      7.282995
  H      -3.369548     -3.253776      6.404221
  S      -4.398974     -6.927505      5.785592
  H      -5.078191     -6.545690      4.684117
  H      -3.257815     -7.098928      5.086494
33
Coordinates from ORCA-job neb_287_345_CI_MEP.QMRegion E -2131.022551415076
  H      -2.384531     -3.684866      1.950233
  O      -2.399256     -4.610344      2.270492
  H      -1.451222     -4.827990      2.420502
  H      -4.617337     -5.178069     -1.583502
  O      -5.332975     -4.819734     -1.025414
  H      -5.125846     -5.160881     -0.138442
  H      -2.107768     -8.232789      0.539773
  O      -1.729286     -7.712305      1.280723
  H      -2.469223     -7.307441      1.737376
  H      -5.443397     -5.137501      1.838235
  O      -4.776993     -5.810547      1.548232
  H      -3.916986     -5.380909      1.741982
  H      -4.402005     -2.562565      4.112539
  O      -5.321409     -2.267947      3.948970
  H      -5.216698     -1.489993      3.352961
  H      -5.707947     -8.084957     -0.792255
  O      -4.970152     -8.169381     -0.142711
  H      -5.009729     -7.363599      0.399642
  H      -2.790351     -9.944081     -0.942405
  O      -2.668643     -8.993086     -1.010314
  H      -3.581484     -8.617105     -0.831017
  H      -2.023354     -3.008357      4.582033
  O      -2.913835     -3.393661      4.756883
  H      -2.919980     -4.163646      4.165985
  H      -5.317613     -2.013366      6.926109
  O      -5.983958     -1.506661      6.436435
  H      -5.933969     -1.854674      5.519710
  H      -3.426605     -3.644553      7.885512
  O      -3.655347     -2.941322      7.273916
  H      -3.337213     -3.241893      6.389252
  S      -4.276614     -6.887889      5.435861
  H      -5.171287     -6.655628      4.453671
  H      -3.665864     -7.857970      4.724655
33
Coordinates from ORCA-job neb_287_345_CI_MEP.QMRegion E -2131.022120808199
  H      -2.389579     -3.701726      1.893363
  O      -2.410749     -4.626192      2.217564
  H      -1.465925     -4.842664      2.390412
  H      -4.631277     -5.171615     -1.619381
  O      -5.341126     -4.808191     -1.057729
  H      -5.139594     -5.168457     -0.175927
  H      -2.108452     -8.289770      0.507230
  O      -1.729919     -7.762949      1.242419
  H      -2.468882     -7.398536      1.733835
  H      -5.470709     -5.142040      1.788241
  O      -4.818888     -5.822738      1.481144
  H      -3.950422     -5.418542      1.683589
  H      -4.407040     -2.581073      4.080726
  O      -5.324463     -2.271415      3.931142
  H      -5.217146     -1.492730      3.336074
  H      -5.710365     -8.125115     -0.818704
  O      -4.973168     -8.214506     -0.168018
  H      -5.007666     -7.401246      0.363229
  H      -2.815625    -10.005157     -1.021704
  O      -2.685669     -9.053297     -1.048479
  H      -3.596190     -8.674303     -0.862763
  H      -2.039592     -3.036712      4.532838
  O      -2.925772     -3.445917      4.664165
  H      -2.909297     -4.163645      4.005155
  H      -5.337897     -2.026939      6.879841
  O      -6.002053     -1.507814      6.400965
  H      -5.948472     -1.842101      5.478321
  H      -3.442465     -3.673142      7.796779
  O      -3.655809     -2.955100      7.196951
  H      -3.351593     -3.255736      6.309582
  S      -4.168864     -7.164889      5.001996
  H      -5.150734     -6.732664      4.184848
  H      -4.017055     -8.306601      4.297610
33
Coordinates from ORCA-job neb_287_345_CI_MEP.QMRegion E -2131.023550619479
  H      -2.395482     -3.704857      1.856259
  O      -2.427934     -4.625552      2.191659
  H      -1.485481     -4.854091      2.361990
  H      -4.643139     -5.170379     -1.650545
  O      -5.347632     -4.800109     -1.086923
  H      -5.150958     -5.174641     -0.208956
  H      -2.123561     -8.298728      0.515327
  O      -1.734363     -7.754891      1.229750
  H      -2.442228     -7.527775      1.839253
  H      -5.487162     -5.132629      1.744051
  O      -4.852283     -5.824746      1.425308
  H      -3.971991     -5.449872      1.628552
  H      -4.409054     -2.591315      4.060389
  O      -5.325704     -2.275972      3.916520
  H      -5.218675     -1.497765      3.320326
  H      -5.711335     -8.148560     -0.836106
  O      -4.974479     -8.242044     -0.185407
  H      -5.002729     -7.422816      0.336849
  H      -2.822560    -10.032059     -1.066554
  O      -2.689086     -9.080374     -1.069458
  H      -3.599309     -8.701268     -0.883955
  H      -2.047132     -3.051471      4.510354
  O      -2.929846     -3.476305      4.606215
  H      -2.900664     -4.135268      3.883335
  H      -5.350434     -2.037222      6.849119
  O      -6.013577     -1.512008      6.375895
  H      -5.957499     -1.840521      5.450787
  H      -3.452066     -3.689898      7.742973
  O      -3.658337     -2.963969      7.150103
  H      -3.367059     -3.266515      6.260831
  S      -3.975203     -7.468606      4.480462
  H      -4.970232     -6.807601      3.854070
  H      -4.349152     -8.645932      3.934557
33
Coordinates from ORCA-job neb_287_345_CI_MEP.QMRegion E -2131.031306668668
  H      -2.390921     -3.648588      1.945698
  O      -2.436305     -4.564867      2.293526
  H      -1.495731     -4.828191      2.411652
  H      -4.620435     -5.158148     -1.605346
  O      -5.338898     -4.799510     -1.051163
  H      -5.127590     -5.130951     -0.160768
  H      -2.033243     -8.241471      0.509220
  O      -1.701910     -7.708689      1.260119
  H      -2.353707     -7.842821      1.965917
  H      -5.438212     -5.085785      1.806936
  O      -4.791403     -5.773050      1.495731
  H      -3.909116     -5.390351      1.695991
  H      -4.427067     -2.533621      4.122381
  O      -5.347795     -2.250592      3.946559
  H      -5.241999     -1.474358      3.347467
  H      -5.710401     -8.081416     -0.799392
  O      -4.966741     -8.153131     -0.153001
  H      -4.957134     -7.304031      0.321891
  H      -2.782087     -9.952539     -0.980378
  O      -2.660283     -9.001101     -1.034348
  H      -3.566806     -8.621365     -0.847506
  H      -2.038667     -2.983421      4.608762
  O      -2.925935     -3.395253      4.721962
  H      -2.907205     -4.057250      4.002807
  H      -5.360784     -2.005020      6.910979
  O      -6.019967     -1.489335      6.422303
  H      -5.976162     -1.832143      5.503330
  H      -3.458578     -3.604613      7.870165
  O      -3.691419     -2.909563      7.251060
  H      -3.386454     -3.221373      6.368432
  S      -4.242821     -8.577597      3.240120
  H      -4.707604     -7.339924      2.946703
  H      -4.757723     -9.054485      2.084856
