33
Coordinates from ORCA-job neb_8_170_CI_MEP.QMRegion E -2131.024238890290
  H       2.223297      5.821071     -1.210456
  O       3.165510      5.530558     -1.086504
  H       3.325353      4.940427     -1.845605
  H       4.249223      5.600261      0.369910
  O       4.637089      5.682954      1.259670
  H       3.995634      6.287562      1.689225
  H       5.827478      0.003323      0.446704
  O       5.619223      0.726186      1.072744
  H       6.122874      0.519653      1.891277
  H       5.436817      3.709115      3.647006
  O       6.100960      3.976612      4.306871
  H       5.624431      4.619919      4.863373
  H       3.765313      7.185693     -1.392280
  O       3.874255      8.146730     -1.553216
  H       3.998816      8.169813     -2.511665
  H       6.113884      1.872905     -0.490975
  O       6.693220      2.071556     -1.241254
  H       7.487964      1.537053     -1.038118
  H       4.517030      4.070357      1.728847
  O       4.368609      3.135468      2.009913
  H       5.109368      2.614365      1.683351
  H       3.924198      6.003760     -4.034523
  O       4.371740      6.850650     -4.199745
  H       5.305070      6.612425     -4.197747
  H       4.707398      8.812726      0.012650
  O       4.956100      8.950623      0.946052
  H       5.710510      8.361290      1.051926
  H       5.294195      4.185441     -3.193890
  O       6.252470      4.181400     -3.083722
  H       6.419602      3.516724     -2.385476
  S       7.670671      6.401969     -0.371385
  H       6.750493      5.942243      0.505317
  H       7.005289      5.874871     -1.422926
33
Coordinates from ORCA-job neb_8_170_CI_MEP.QMRegion E -2131.022490126771
  H       2.212507      5.831459     -1.228612
  O       3.159805      5.554284     -1.110489
  H       3.322356      4.967785     -1.872426
  H       4.252181      5.635962      0.342684
  O       4.610350      5.709206      1.245806
  H       3.944684      6.296149      1.666529
  H       5.828835      0.030716      0.413427
  O       5.623296      0.753871      1.041176
  H       6.127434      0.543692      1.856857
  H       5.400539      3.711346      3.618318
  O       6.068891      3.978758      4.273877
  H       5.599019      4.627949      4.829234
  H       3.740304      7.205016     -1.405518
  O       3.860504      8.168427     -1.551421
  H       4.000442      8.202369     -2.507667
  H       6.110415      1.907563     -0.530799
  O       6.697924      2.113086     -1.272962
  H       7.490822      1.578112     -1.066730
  H       4.485104      4.097237      1.710256
  O       4.350905      3.155591      1.978530
  H       5.098232      2.650037      1.642648
  H       3.937646      6.069684     -4.040206
  O       4.424837      6.898266     -4.173551
  H       5.344675      6.635035     -4.056011
  H       4.686492      8.804776      0.017286
  O       4.939472      8.937538      0.951246
  H       5.641672      8.290855      1.077248
  H       5.258335      4.242962     -3.283215
  O       6.213552      4.212880     -3.148513
  H       6.345481      3.532908     -2.460886
  S       7.888559      5.991414     -0.024571
  H       6.844444      5.767652      0.803437
  H       7.386221      5.172123     -0.967118
33
Coordinates from ORCA-job neb_8_170_CI_MEP.QMRegion E -2131.022007183201
  H       2.213427      5.831105     -1.224171
  O       3.156071      5.542730     -1.096817
  H       3.320961      4.957775     -1.858820
  H       4.262085      5.630564      0.358663
  O       4.619949      5.707635      1.261123
  H       3.954132      6.296206      1.678919
  H       5.820736      0.017852      0.430862
  O       5.615424      0.743288      1.055559
  H       6.119160      0.537374      1.873270
  H       5.406036      3.714003      3.632823
  O       6.078023      3.984965      4.283046
  H       5.607797      4.631258      4.841798
  H       3.751102      7.194427     -1.391503
  O       3.871199      8.156364     -1.544218
  H       4.021680      8.179858     -2.499506
  H       6.106124      1.885017     -0.508307
  O       6.691871      2.095130     -1.251193
  H       7.480376      1.550019     -1.051522
  H       4.494906      4.091830      1.724472
  O       4.350299      3.151328      1.989920
  H       5.097347      2.638861      1.664569
  H       3.946130      6.052260     -4.027335
  O       4.444225      6.875464     -4.154486
  H       5.359758      6.597887     -4.035539
  H       4.710078      8.791599      0.019427
  O       4.961934      8.925527      0.953664
  H       5.651788      8.266961      1.086398
  H       5.244178      4.209627     -3.285528
  O       6.200239      4.200542     -3.153895
  H       6.348526      3.533708     -2.458090
  S       7.910797      5.931701      0.001314
  H       6.867848      5.723080      0.833788
  H       7.458379      5.006785     -0.868531
33
Coordinates from ORCA-job neb_8_170_CI_MEP.QMRegion E -2131.022019901230
  H       2.217791      5.816356     -1.214269
  O       3.160769      5.529959     -1.087466
  H       3.327545      4.945915     -1.849859
  H       4.271500      5.619395      0.367556
  O       4.622619      5.695920      1.272595
  H       3.951871      6.280354      1.688037
  H       5.828590      0.006582      0.436986
  O       5.622983      0.731695      1.061791
  H       6.127205      0.524920      1.879595
  H       5.405902      3.696105      3.640642
  O       6.078451      3.969270      4.289578
  H       5.608856      4.614795      4.849391
  H       3.751930      7.181534     -1.379379
  O       3.874765      8.143601     -1.529302
  H       4.026673      8.169694     -2.484370
  H       6.113479      1.877207     -0.503551
  O       6.701228      2.091392     -1.243672
  H       7.489202      1.544550     -1.044315
  H       4.496488      4.078522      1.732769
  O       4.354204      3.137652      1.997456
  H       5.102174      2.627519      1.670251
  H       3.955712      6.047943     -4.014409
  O       4.459842      6.868388     -4.136211
  H       5.371367      6.587900     -3.994338
  H       4.710911      8.772676      0.035234
  O       4.965706      8.906449      0.968796
  H       5.643698      8.236381      1.104785
  H       5.247731      4.203644     -3.285754
  O       6.203031      4.191317     -3.151978
  H       6.344350      3.530057     -2.449966
  S       7.944173      5.839317      0.058237
  H       6.886919      5.678641      0.883986
  H       7.518656      4.850113     -0.751718
33
Coordinates from ORCA-job neb_8_170_CI_MEP.QMRegion E -2131.022094920895
  H       2.216655      5.809656     -1.213961
  O       3.158205      5.520947     -1.082072
  H       3.328568      4.937932     -1.844541
  H       4.281718      5.611312      0.376835
  O       4.621708      5.689831      1.285555
  H       3.942826      6.270346      1.693708
  H       5.834382      0.002556      0.432721
  O       5.628530      0.727679      1.057802
  H       6.133165      0.520791      1.875320
  H       5.400930      3.680552      3.643387
  O       6.075326      3.962707      4.286595
  H       5.603394      4.603958      4.849402
  H       3.747457      7.172134     -1.365712
  O       3.876344      8.134003     -1.512868
  H       4.032254      8.160981     -2.467456
  H       6.123060      1.878189     -0.503707
  O       6.711187      2.102241     -1.240835
  H       7.498811      1.553235     -1.046472
  H       4.497467      4.066463      1.738985
  O       4.355362      3.124134      1.997338
  H       5.104191      2.615879      1.668780
  H       3.968117      6.052561     -4.002400
  O       4.481603      6.868749     -4.112410
  H       5.385830      6.582263     -3.937923
  H       4.710873      8.752760      0.051326
  O       4.971297      8.890310      0.983110
  H       5.625031      8.198530      1.129106
  H       5.248268      4.201062     -3.294952
  O       6.202948      4.192210     -3.157118
  H       6.344282      3.544468     -2.443224
  S       7.983552      5.704504      0.124451
  H       6.913185      5.616535      0.943324
  H       7.597350      4.615882     -0.570961
33
Coordinates from ORCA-job neb_8_170_CI_MEP.QMRegion E -2131.021996707011
  H       2.217313      5.812780     -1.211211
  O       3.157860      5.521345     -1.079100
  H       3.327192      4.939823     -1.842789
  H       4.291065      5.619508      0.375233
  O       4.631965      5.701389      1.283318
  H       3.950004      6.278175      1.691536
  H       5.821726     -0.002232      0.447602
  O       5.618291      0.725733      1.069693
  H       6.122744      0.521609      1.888453
  H       5.398166      3.692152      3.647890
  O       6.076320      3.969538      4.289203
  H       5.609823      4.615438      4.851362
  H       3.752600      7.171577     -1.366843
  O       3.884160      8.132625     -1.516515
  H       4.051464      8.152670     -2.469657
  H       6.109376      1.857700     -0.490750
  O       6.700645      2.080396     -1.226197
  H       7.480983      1.518805     -1.034324
  H       4.498425      4.078744      1.739565
  O       4.350923      3.138480      2.003065
  H       5.098333      2.624746      1.680663
  H       3.976837      6.049207     -3.997030
  O       4.509567      6.854442     -4.093759
  H       5.403405      6.544640     -3.904382
  H       4.731820      8.746265      0.045671
  O       4.990876      8.875325      0.979122
  H       5.627431      8.167723      1.126368
  H       5.234234      4.184213     -3.301447
  O       6.189975      4.204794     -3.173113
  H       6.353876      3.588064     -2.438838
  S       8.021242      5.501014      0.171546
  H       6.947037      5.505917      0.989708
  H       7.649282      4.329864     -0.385468
33
Coordinates from ORCA-job neb_8_170_CI_MEP.QMRegion E -2131.022161126270
  H       2.217617      5.810863     -1.209499
  O       3.158146      5.519873     -1.076841
  H       3.327827      4.939229     -1.841207
  H       4.304466      5.622496      0.375406
  O       4.639528      5.707644      1.285129
  H       3.948795      6.276720      1.689791
  H       5.818796     -0.002949      0.450089
  O       5.617024      0.725858      1.071752
  H       6.121040      0.521220      1.890835
  H       5.392332      3.690352      3.648419
  O       6.072802      3.968760      4.286829
  H       5.608838      4.616593      4.848793
  H       3.751329      7.168684     -1.362801
  O       3.888626      8.129327     -1.510689
  H       4.063258      8.148523     -2.462755
  H       6.109872      1.857150     -0.487439
  O       6.704569      2.083362     -1.219090
  H       7.481662      1.516098     -1.030078
  H       4.498060      4.082062      1.740123
  O       4.349089      3.141984      2.003207
  H       5.096646      2.627882      1.681822
  H       3.989844      6.054710     -3.988916
  O       4.538851      6.850317     -4.070847
  H       5.419631      6.525106     -3.847315
  H       4.740865      8.732191      0.051536
  O       5.003104      8.856537      0.984834
  H       5.614529      8.127681      1.136407
  H       5.228731      4.178575     -3.310756
  O       6.184092      4.210247     -3.182515
  H       6.353006      3.619467     -2.428978
  S       8.066665      5.266040      0.253633
  H       6.983161      5.385293      1.050589
  H       7.683453      4.044694     -0.177054
