21
Coordinates from ORCA-job neb_201_262_CI_MEP.QMRegion E -1845.683704228779
  H      -9.081512     -1.827634     -2.289914
  O      -8.500812     -1.552565     -1.556564
  H      -8.509340     -2.262512     -0.874540
  H      -7.781196     -3.662942      0.961778
  O      -8.474358     -3.555383      0.281293
  H      -8.338192     -4.305535     -0.323504
  H      -6.831117     -5.208465     -1.471140
  O      -7.744101     -5.489514     -1.733284
  H      -7.816348     -5.080854     -2.626182
  H      -6.949049     -3.383065     -3.580723
  O      -7.547954     -4.021870     -4.033608
  H      -7.001253     -4.444153     -4.736791
  H      -9.020110     -2.986374     -4.175056
  O      -9.755871     -2.408427     -3.877576
  H      -9.853495     -1.740726     -4.563810
  H      -7.598975     -8.594574     -1.472156
  O      -6.920784     -8.061602     -1.895585
  H      -7.292847     -7.147412     -1.899302
  S     -11.477480     -5.263200     -2.438096
  H     -11.114890     -4.153686     -3.116592
  H     -10.304081     -5.303151     -1.776739
21
Coordinates from ORCA-job neb_201_262_CI_MEP.QMRegion E -1845.683148486488
  H      -9.053111     -1.826086     -2.275724
  O      -8.488406     -1.563192     -1.525113
  H      -8.503827     -2.281718     -0.852172
  H      -7.799202     -3.674371      0.987668
  O      -8.500292     -3.576196      0.313547
  H      -8.359420     -4.328911     -0.289503
  H      -6.843590     -5.216347     -1.440838
  O      -7.764009     -5.497826     -1.672276
  H      -7.861775     -5.105321     -2.567293
  H      -6.931377     -3.413333     -3.547353
  O      -7.539265     -4.038835     -4.006074
  H      -6.996642     -4.461616     -4.711667
  H      -8.898407     -2.873043     -4.214758
  O      -9.621232     -2.262865     -3.951647
  H      -9.588970     -1.535580     -4.582111
  H      -7.625859     -8.603816     -1.392150
  O      -6.961932     -8.076935     -1.844997
  H      -7.331472     -7.161677     -1.842454
  S     -11.449512     -5.305445     -3.007519
  H     -10.950323     -4.332200     -3.795988
  H     -10.669746     -4.927811     -1.975411
21
Coordinates from ORCA-job neb_201_262_CI_MEP.QMRegion E -1845.682544137645
  H      -9.038549     -1.811367     -2.298361
  O      -8.488253     -1.558250     -1.533002
  H      -8.505647     -2.285249     -0.869473
  H      -7.800757     -3.679464      0.969233
  O      -8.500357     -3.581865      0.294068
  H      -8.361423     -4.337177     -0.307104
  H      -6.837808     -5.214734     -1.454433
  O      -7.758157     -5.501135     -1.679197
  H      -7.869096     -5.110086     -2.572222
  H      -6.931568     -3.413337     -3.552957
  O      -7.541074     -4.031494     -4.019046
  H      -6.994605     -4.457158     -4.720013
  H      -8.861798     -2.818077     -4.248492
  O      -9.569192     -2.187000     -3.995533
  H      -9.482149     -1.444350     -4.602746
  H      -7.624075     -8.602408     -1.403611
  O      -6.956975     -8.075800     -1.852019
  H      -7.326866     -7.160173     -1.850048
  S     -11.383822     -5.345841     -3.190863
  H     -10.772433     -4.546412     -4.085964
  H     -10.883356     -4.636284     -2.159871
21
Coordinates from ORCA-job neb_201_262_CI_MEP.QMRegion E -1845.682355780428
  H      -9.026319     -1.800863     -2.314123
  O      -8.486615     -1.554438     -1.538756
  H      -8.504641     -2.287975     -0.882209
  H      -7.798514     -3.682996      0.953737
  O      -8.497709     -3.582958      0.279137
  H      -8.366954     -4.342327     -0.319092
  H      -6.832361     -5.214859     -1.464231
  O      -7.751714     -5.506835     -1.685547
  H      -7.873077     -5.113921     -2.575430
  H      -6.934369     -3.411795     -3.558598
  O      -7.543110     -4.026317     -4.030365
  H      -6.991924     -4.453132     -4.727073
  H      -8.846919     -2.784282     -4.271283
  O      -9.536880     -2.134320     -4.020766
  H      -9.411946     -1.385111     -4.613438
  H      -7.620637     -8.602165     -1.410915
  O      -6.952102     -8.076992     -1.858887
  H      -7.321016     -7.160382     -1.856763
  S     -11.317765     -5.354909     -3.287584
  H     -10.568203     -4.755695     -4.232366
  H     -11.061477     -4.370183     -2.403343
21
Coordinates from ORCA-job neb_201_262_CI_MEP.QMRegion E -1845.682378995196
  H      -9.019113     -1.788185     -2.294567
  O      -8.476690     -1.555587     -1.517648
  H      -8.501840     -2.292435     -0.864627
  H      -7.798904     -3.682494      0.967822
  O      -8.504878     -3.581044      0.300140
  H      -8.385039     -4.342382     -0.296538
  H      -6.832859     -5.210004     -1.461631
  O      -7.750294     -5.501965     -1.690286
  H      -7.867481     -5.100205     -2.576541
  H      -6.939633     -3.406133     -3.561767
  O      -7.547399     -4.018649     -4.038053
  H      -6.991233     -4.447209     -4.729861
  H      -8.841422     -2.736890     -4.280844
  O      -9.509419     -2.072116     -4.015343
  H      -9.384637     -1.326943     -4.612865
  H      -7.613483     -8.592073     -1.424061
  O      -6.942362     -8.069078     -1.870781
  H      -7.308892     -7.151225     -1.868222
  S     -11.318211     -5.254169     -3.419325
  H     -10.324289     -4.936962     -4.270140
  H     -11.135486     -4.114388     -2.723970
21
Coordinates from ORCA-job neb_201_262_CI_MEP.QMRegion E -1845.683229857580
  H      -9.005773     -1.776468     -2.313686
  O      -8.474815     -1.546434     -1.528548
  H      -8.500582     -2.286107     -0.878283
  H      -7.787128     -3.672763      0.953916
  O      -8.490669     -3.565550      0.284860
  H      -8.381212     -4.330971     -0.308424
  H      -6.828626     -5.203106     -1.467428
  O      -7.745926     -5.497242     -1.694416
  H      -7.870240     -5.091978     -2.577521
  H      -6.940259     -3.402487     -3.564370
  O      -7.548886     -4.009298     -4.047125
  H      -6.989919     -4.440994     -4.734677
  H      -8.809918     -2.692722     -4.312943
  O      -9.458241     -2.006020     -4.055037
  H      -9.275272     -1.249998     -4.624090
  H      -7.612775     -8.578375     -1.419463
  O      -6.940129     -8.060548     -1.869868
  H      -7.301341     -7.140096     -1.867279
  S     -11.238113     -5.185035     -3.497162
  H     -10.160544     -5.038616     -4.291320
  H     -11.182890     -3.891149     -3.121634
21
Coordinates from ORCA-job neb_201_262_CI_MEP.QMRegion E -1845.684154278549
  H      -9.032809     -1.783652     -2.234701
  O      -8.475863     -1.585591     -1.462928
  H      -8.540664     -2.321657     -0.812188
  H      -7.844938     -3.722675      1.008812
  O      -8.570274     -3.627260      0.361788
  H      -8.458241     -4.385849     -0.238564
  H      -6.850910     -5.218892     -1.427305
  O      -7.765803     -5.517036     -1.657130
  H      -7.890573     -5.098463     -2.533413
  H      -6.939733     -3.411706     -3.520486
  O      -7.546625     -4.011191     -4.014857
  H      -6.983700     -4.435098     -4.703018
  H      -8.731558     -2.570519     -4.325807
  O      -9.346023     -1.850483     -4.083354
  H      -9.079792     -1.089606     -4.613269
  H      -7.617246     -8.603969     -1.379709
  O      -6.958698     -8.087272     -1.851906
  H      -7.318855     -7.167348     -1.846311
  S     -11.157540     -4.933255     -4.036930
  H      -9.863604     -5.122333     -4.357826
  H     -11.024069     -3.594456     -4.138860
