27
Coordinates from ORCA-job neb_31_84_CI_MEP.QMRegion E -1988.356771200426
  H       4.234176      5.604243      0.284566
  O       4.632676      5.686112      1.171788
  H       3.939307      6.169119      1.663010
  H       6.498355      1.060988      4.831297
  O       6.112082      1.592257      5.548042
  H       6.228673      2.511163      5.215001
  H       7.555744     -0.507841      3.059401
  O       6.824802      0.081476      3.279564
  H       6.139507     -0.545835      3.635756
  H       4.001926      4.693659      6.284414
  O       4.142909      5.403475      5.644878
  H       3.549494      5.145113      4.892342
  H       5.533634      3.673501      3.515843
  O       6.134526      3.964319      4.229648
  H       5.611228      4.626759      4.716240
  H       4.654031      3.999274      1.613362
  O       4.458180      3.106699      1.977965
  H       5.100102      2.476873      1.619247
  H       4.698480      8.644976      0.015743
  O       5.032079      8.732352      0.932705
  H       5.463443      7.878263      1.074460
  H       3.504552      8.280702      1.847204
  O       2.752240      7.668212      1.984531
  H       2.258690      7.931615      2.782841
  S       9.540611      3.194688      4.764371
  H       8.807265      2.479922      5.645166
  H       8.428206      3.783586      4.272103
27
Coordinates from ORCA-job neb_31_84_CI_MEP.QMRegion E -1988.356012076805
  H       4.236494      5.582079      0.291531
  O       4.636343      5.655788      1.178636
  H       3.953747      6.152413      1.670165
  H       6.497175      1.041645      4.847402
  O       6.099738      1.568715      5.559510
  H       6.240171      2.490191      5.247083
  H       7.534076     -0.555722      3.055114
  O       6.830500      0.065082      3.280766
  H       6.129502     -0.540203      3.646169
  H       3.956743      4.657961      6.326735
  O       4.119204      5.362619      5.686437
  H       3.528181      5.117690      4.927970
  H       5.496530      3.651291      3.551695
  O       6.094003      3.960065      4.261055
  H       5.550733      4.596883      4.761613
  H       4.638762      3.980132      1.635665
  O       4.437074      3.086681      1.996346
  H       5.083396      2.458570      1.642890
  H       4.700566      8.640149      0.026527
  O       5.027415      8.767017      0.941606
  H       5.518911      7.950961      1.102473
  H       3.511547      8.273879      1.853582
  O       2.760198      7.659319      1.984644
  H       2.266662      7.918516      2.784126
  S       9.528785      4.138887      4.076248
  H       9.197115      3.111299      4.887094
  H       8.226386      4.463183      3.905657
27
Coordinates from ORCA-job neb_31_84_CI_MEP.QMRegion E -1988.355782348366
  H       4.241172      5.582127      0.285036
  O       4.638769      5.659278      1.172738
  H       3.957891      6.163076      1.658975
  H       6.497017      1.040753      4.855733
  O       6.091423      1.564602      5.564583
  H       6.243890      2.487686      5.264453
  H       7.513930     -0.584556      3.047079
  O       6.829312      0.056350      3.276771
  H       6.118269     -0.534099      3.648474
  H       3.933326      4.657988      6.332263
  O       4.110519      5.356875      5.689543
  H       3.521748      5.115992      4.927428
  H       5.498478      3.663717      3.561608
  O       6.089386      3.968513      4.277568
  H       5.532345      4.587701      4.786732
  H       4.630173      3.987207      1.634298
  O       4.429564      3.092876      1.994553
  H       5.078733      2.466887      1.643393
  H       4.689662      8.655599      0.004039
  O       5.016347      8.796341      0.917763
  H       5.535108      7.997765      1.078586
  H       3.510426      8.285612      1.837290
  O       2.762931      7.667825      1.976848
  H       2.269255      7.930577      2.774909
  S       9.387306      4.794301      3.725864
  H       9.333709      3.480717      4.033284
  H       8.038121      4.880568      3.788032
27
Coordinates from ORCA-job neb_31_84_CI_MEP.QMRegion E -1988.355750907291
  H       4.243799      5.578543      0.282702
  O       4.640334      5.653695      1.170889
  H       3.963404      6.164186      1.655163
  H       6.498935      1.040152      4.862658
  O       6.085548      1.562542      5.567692
  H       6.245948      2.485882      5.273700
  H       7.507388     -0.596977      3.049349
  O       6.829743      0.052875      3.275309
  H       6.113905     -0.529856      3.649985
  H       3.916140      4.653258      6.339893
  O       4.103411      5.349793      5.697460
  H       3.516784      5.113562      4.931951
  H       5.494085      3.674305      3.568756
  O       6.078869      3.975051      4.291200
  H       5.510289      4.579120      4.806579
  H       4.621074      3.989273      1.634708
  O       4.421371      3.094040      1.995191
  H       5.071873      2.468497      1.646553
  H       4.678070      8.665186     -0.007501
  O       5.003479      8.821877      0.904849
  H       5.556531      8.047904      1.065851
  H       3.511016      8.289412      1.831309
  O       2.764818      7.670567      1.974341
  H       2.271181      7.935097      2.771728
  S       9.237850      5.179218      3.562312
  H       9.211167      3.942447      3.021542
  H       7.921863      5.093198      3.867809
27
Coordinates from ORCA-job neb_31_84_CI_MEP.QMRegion E -1988.355780787033
  H       4.238572      5.571385      0.280122
  O       4.643754      5.639730      1.165014
  H       3.981634      6.164044      1.654071
  H       6.494813      1.036101      4.853667
  O       6.083866      1.556223      5.561950
  H       6.243873      2.480619      5.270221
  H       7.510055     -0.586726      3.043690
  O       6.826019      0.055958      3.270157
  H       6.113823     -0.532018      3.642977
  H       3.901666      4.646546      6.342042
  O       4.095004      5.344408      5.702772
  H       3.509257      5.113814      4.934508
  H       5.489049      3.669575      3.577207
  O       6.068292      3.971897      4.303585
  H       5.491894      4.570726      4.816802
  H       4.612346      3.984863      1.638257
  O       4.413563      3.089487      2.000625
  H       5.062106      2.462481      1.650919
  H       4.686677      8.668359      0.006860
  O       4.995825      8.858704      0.917672
  H       5.601134      8.129278      1.098104
  H       3.514330      8.293818      1.836099
  O       2.770047      7.671859      1.974671
  H       2.274724      7.932899      2.772096
  S       8.982688      5.522264      3.240205
  H       8.713086      4.574438      2.319874
  H       7.820061      5.241395      3.871409
27
Coordinates from ORCA-job neb_31_84_CI_MEP.QMRegion E -1988.356287842201
  H       4.214164      5.574119      0.265783
  O       4.631943      5.640376      1.145798
  H       3.988205      6.184107      1.637643
  H       6.474187      1.042513      4.823658
  O       6.075652      1.564002      5.538230
  H       6.237320      2.488044      5.245931
  H       7.495299     -0.572870      3.015760
  O       6.810129      0.063236      3.255309
  H       6.100575     -0.530236      3.624470
  H       3.879199      4.649209      6.329659
  O       4.084451      5.347914      5.695008
  H       3.500436      5.123978      4.922574
  H       5.474533      3.676118      3.567552
  O       6.061447      3.985207      4.284675
  H       5.484313      4.576946      4.805359
  H       4.581128      3.990764      1.627476
  O       4.387922      3.094059      1.991448
  H       5.040684      2.469730      1.644706
  H       4.695790      8.682381      0.023244
  O       4.977097      8.914356      0.932798
  H       5.633395      8.239931      1.144821
  H       3.504539      8.315154      1.830233
  O       2.767589      7.684108      1.967780
  H       2.266352      7.941863      2.762630
  S       8.624620      5.895125      2.869446
  H       8.082901      5.184413      1.859697
  H       7.678846      5.425292      3.715083
27
Coordinates from ORCA-job neb_31_84_CI_MEP.QMRegion E -1988.360240491315
  H       4.208414      5.538264      0.265308
  O       4.641077      5.586459      1.139586
  H       4.041897      6.169605      1.643527
  H       6.500259      1.002512      4.839448
  O       6.095646      1.538651      5.539704
  H       6.288954      2.455228      5.246652
  H       7.505731     -0.620094      3.016497
  O       6.833348      0.032560      3.250858
  H       6.116066     -0.546742      3.625821
  H       3.943656      4.612017      6.342909
  O       4.128220      5.316568      5.708620
  H       3.543195      5.088787      4.941072
  H       5.550081      3.656429      3.578122
  O       6.156154      3.978420      4.272907
  H       5.583616      4.558511      4.810236
  H       4.602082      3.953168      1.652705
  O       4.417069      3.058100      2.019332
  H       5.065468      2.437624      1.657392
  H       4.751433      8.675969      0.076293
  O       4.982899      8.956350      0.983747
  H       5.718311      8.385479      1.245357
  H       3.542210      8.297382      1.859342
  O       2.806979      7.660815      1.984392
  H       2.308877      7.905535      2.784938
  S       7.737575      6.585998      2.183759
  H       6.832010      6.058793      1.333060
  H       7.271743      5.797589      3.182454
