21
Coordinates from ORCA-job neb_101_155_CI_MEP.QMRegion E -1845.693613491291
  H      -5.823341     -3.145045      1.353593
  O      -6.298382     -3.717164      2.008635
  H      -6.095216     -3.295649      2.869948
  H      -6.371894     -0.102055      1.138373
  O      -6.730296     -0.112167      0.232947
  H      -7.655956     -0.355397      0.305800
  H      -5.385031     -3.100990     -0.607309
  O      -5.144454     -2.374903     -0.001443
  H      -5.728667     -1.620775     -0.217765
  H      -9.036530     -1.779659     -2.332107
  O      -8.517137     -1.567016     -1.524684
  H      -8.584338     -2.342110     -0.921166
  H      -7.851092     -3.762304      0.875918
  O      -8.535421     -3.708699      0.179416
  H      -8.342154     -4.447677     -0.440617
  H      -7.891518      0.136018     -2.037754
  O      -7.379727      0.846610     -2.447405
  H      -7.605353      0.841596     -3.401631
  S     -11.643311     -4.075054      1.573441
  H     -12.146652     -3.500642      0.462625
  H     -10.377670     -4.017807      1.089648
21
Coordinates from ORCA-job neb_101_155_CI_MEP.QMRegion E -1845.693444133108
  H      -5.812521     -3.149795      1.352340
  O      -6.283021     -3.724732      2.008904
  H      -6.081282     -3.303196      2.870680
  H      -6.353642     -0.102258      1.147368
  O      -6.730389     -0.115546      0.248624
  H      -7.656626     -0.347519      0.344530
  H      -5.382323     -3.099346     -0.608320
  O      -5.142820     -2.374657     -0.000383
  H      -5.735257     -1.624319     -0.208687
  H      -9.030139     -1.774377     -2.331996
  O      -8.511080     -1.558143     -1.525583
  H      -8.564432     -2.333892     -0.921351
  H      -7.815803     -3.761686      0.874470
  O      -8.495566     -3.699639      0.174031
  H      -8.323795     -4.447318     -0.441288
  H      -7.878886      0.139932     -2.024617
  O      -7.373782      0.853399     -2.438322
  H      -7.600831      0.846838     -3.391587
  S     -11.526169     -3.466770      1.679650
  H     -11.952074     -2.957006      0.506482
  H     -10.294338     -3.717704      1.172572
21
Coordinates from ORCA-job neb_101_155_CI_MEP.QMRegion E -1845.693402740156
  H      -5.807280     -3.152020      1.351716
  O      -6.277924     -3.724773      2.010397
  H      -6.073179     -3.302062      2.871152
  H      -6.344086     -0.109662      1.157831
  O      -6.729186     -0.122285      0.261935
  H      -7.654467     -0.352937      0.368830
  H      -5.376230     -3.101170     -0.606232
  O      -5.138421     -2.376276      0.002267
  H      -5.734090     -1.627689     -0.203647
  H      -9.025443     -1.767861     -2.324338
  O      -8.505189     -1.549317     -1.519925
  H      -8.555268     -2.324132     -0.913683
  H      -7.808165     -3.754504      0.877343
  O      -8.485149     -3.691904      0.174374
  H      -8.317259     -4.442309     -0.438111
  H      -7.865604      0.146992     -2.013520
  O      -7.364401      0.860623     -2.431888
  H      -7.592958      0.852355     -3.384305
  S     -11.354665     -2.917202      1.758686
  H     -11.756523     -2.459457      0.555865
  H     -10.229875     -3.451658      1.223458
21
Coordinates from ORCA-job neb_101_155_CI_MEP.QMRegion E -1845.693590617918
  H      -5.799706     -3.153328      1.350449
  O      -6.270784     -3.727329      2.007991
  H      -6.069517     -3.306109      2.870089
  H      -6.340008     -0.099757      1.161521
  O      -6.740290     -0.114105      0.272210
  H      -7.665591     -0.334457      0.400319
  H      -5.386810     -3.092805     -0.611434
  O      -5.144262     -2.370919     -0.001638
  H      -5.743561     -1.622862     -0.198786
  H      -9.023781     -1.771542     -2.328308
  O      -8.504870     -1.546108     -1.524945
  H      -8.548099     -2.317890     -0.914683
  H      -7.789399     -3.752419      0.874916
  O      -8.469588     -3.687964      0.175137
  H      -8.309702     -4.440963     -0.435493
  H      -7.863000      0.142714     -2.012652
  O      -7.365070      0.858010     -2.432892
  H      -7.595420      0.846915     -3.384806
  S     -11.128344     -2.421956      1.807661
  H     -11.554416     -2.041672      0.586231
  H     -10.156548     -3.198206      1.271441
21
Coordinates from ORCA-job neb_101_155_CI_MEP.QMRegion E -1845.693407676569
  H      -5.782301     -3.122320      1.369889
  O      -6.249069     -3.700066      2.026008
  H      -6.051424     -3.272533      2.887664
  H      -6.311981     -0.061008      1.159549
  O      -6.739922     -0.093686      0.283037
  H      -7.662097     -0.302608      0.450637
  H      -5.370600     -3.057477     -0.596215
  O      -5.131015     -2.337184      0.014585
  H      -5.745407     -1.597352     -0.171106
  H      -9.001805     -1.766272     -2.331572
  O      -8.486924     -1.539398     -1.526023
  H      -8.514933     -2.315301     -0.920312
  H      -7.763025     -3.759242      0.888651
  O      -8.444847     -3.678939      0.191658
  H      -8.310441     -4.437101     -0.416269
  H      -7.847868      0.160407     -1.998452
  O      -7.355867      0.876509     -2.424196
  H      -7.587367      0.862811     -3.374970
  S     -10.825261     -1.945427      1.819699
  H     -11.314517     -1.644880      0.599748
  H     -10.057399     -2.938331      1.315464
21
Coordinates from ORCA-job neb_101_155_CI_MEP.QMRegion E -1845.693563443404
  H      -5.763107     -3.106120      1.370136
  O      -6.233077     -3.686800      2.020828
  H      -6.035546     -3.264167      2.885358
  H      -6.298001     -0.039507      1.171653
  O      -6.734920     -0.063344      0.299064
  H      -7.653521     -0.275656      0.483122
  H      -5.368206     -3.033964     -0.596248
  O      -5.118675     -2.316449      0.012971
  H      -5.729245     -1.571500     -0.165242
  H      -8.989906     -1.744322     -2.323652
  O      -8.471303     -1.506096     -1.524332
  H      -8.503130     -2.270417     -0.904096
  H      -7.746464     -3.715236      0.895230
  O      -8.428259     -3.645506      0.196524
  H      -8.287640     -4.406274     -0.406000
  H      -7.826372      0.181407     -1.989590
  O      -7.337631      0.895553     -2.422988
  H      -7.571972      0.881647     -3.372505
  S     -10.575559     -1.622103      1.817341
  H     -11.103248     -1.333364      0.610428
  H      -9.956638     -2.722836      1.333314
21
Coordinates from ORCA-job neb_101_155_CI_MEP.QMRegion E -1845.698837924009
  H      -5.813880     -3.167076      1.369949
  O      -6.277030     -3.739393      2.036412
  H      -6.067279     -3.307605      2.891559
  H      -6.303835     -0.086348      1.155817
  O      -6.773667     -0.144001      0.302515
  H      -7.692061     -0.305346      0.561129
  H      -5.404471     -3.088785     -0.591689
  O      -5.171173     -2.371518      0.025990
  H      -5.805516     -1.640556     -0.138459
  H      -9.025802     -1.825374     -2.327395
  O      -8.516156     -1.579917     -1.525299
  H      -8.542192     -2.341502     -0.902836
  H      -7.812286     -3.774553      0.916229
  O      -8.510420     -3.702740      0.235470
  H      -8.352916     -4.446007     -0.383795
  H      -7.855998      0.112155     -1.979189
  O      -7.378633      0.833843     -2.415022
  H      -7.614886      0.809757     -3.364471
  S      -9.822274     -0.775800      1.718161
  H     -10.404590     -0.447920      0.546735
  H      -9.688277     -2.067985      1.350555
