36
Coordinates from ORCA-job neb_92_152_CI_MEP.QMRegion E -2202.339813417718
  H       8.763551     -5.067007     -2.964097
  O       8.063685     -5.502269     -2.419791
  H       8.072328     -6.454603     -2.585212
  H       6.513918     -4.168116     -0.691894
  O       7.153322     -4.547193     -0.053464
  H       7.770413     -4.998461     -0.670760
  H       6.383766     -5.976212      0.667626
  O       6.072696     -6.714065      1.245185
  H       5.169082     -6.431761      1.493654
  H       5.602393     -8.035635      0.123518
  O       5.339581     -8.762906     -0.481727
  H       4.528350     -8.423468     -0.914088
  H       7.531063     -2.617444      4.329673
  O       7.748936     -2.619666      3.372540
  H       7.126929     -3.287179      3.028395
  H       6.605712     -5.928341      2.705236
  O       6.728732     -5.260591      3.412881
  H       7.635151     -5.364605      3.751235
  H       9.294988      0.213563     -1.186065
  O       8.640528      0.466264     -0.528168
  H       8.356100     -0.383586     -0.152197
  H       7.971727     -3.075872      0.336598
  O       8.463243     -2.233515      0.487109
  H       8.614993     -2.224045      1.439391
  H       9.043527     -3.907703      3.789619
  O       9.388340     -4.787621      4.051058
  H       9.572463     -4.700918      4.991341
  H       6.594062     -8.555378     -1.630967
  O       7.263204     -8.283590     -2.317082
  H       7.397719     -9.052272     -2.876467
  H       9.712960     -2.270343     -1.111372
  O       9.944831     -1.958758     -2.000970
  H       9.076583     -1.701468     -2.380938
  S       9.849895     -6.791527      1.028395
  H       9.912326     -6.108540      2.192208
  H       8.707252     -7.411172      1.387693
36
Coordinates from ORCA-job neb_92_152_CI_MEP.QMRegion E -2202.338925468366
  H       8.748217     -5.060301     -2.979126
  O       8.048073     -5.501595     -2.438684
  H       8.032286     -6.446434     -2.640386
  H       6.488625     -4.176946     -0.678675
  O       7.139854     -4.562502     -0.057435
  H       7.749979     -4.999368     -0.690942
  H       6.378674     -5.986552      0.672171
  O       6.067411     -6.722512      1.251905
  H       5.165896     -6.434911      1.501324
  H       5.587454     -8.029350      0.120823
  O       5.319885     -8.751076     -0.489523
  H       4.504978     -8.407826     -0.913137
  H       7.507181     -2.616846      4.324402
  O       7.739930     -2.650019      3.372399
  H       7.142684     -3.348637      3.044304
  H       6.613492     -5.955032      2.711408
  O       6.737703     -5.287796      3.420558
  H       7.632046     -5.409702      3.785681
  H       9.302433      0.206722     -1.145540
  O       8.634170      0.458626     -0.501452
  H       8.349236     -0.391716     -0.126087
  H       7.954599     -3.084408      0.343524
  O       8.429267     -2.237600      0.515585
  H       8.537607     -2.231671      1.474615
  H       9.009500     -3.934141      3.948958
  O       9.330475     -4.803773      4.264541
  H       9.367932     -4.701307      5.221103
  H       6.552653     -8.549197     -1.649830
  O       7.219690     -8.296674     -2.347876
  H       7.263948     -9.042813     -2.950898
  H       9.697107     -2.291840     -1.096663
  O       9.930916     -1.968960     -1.981281
  H       9.064578     -1.706473     -2.362153
  S      10.339328     -6.094578      0.971035
  H      10.376369     -5.427842      2.144024
  H       9.502049     -7.023051      1.477417
36
Coordinates from ORCA-job neb_92_152_CI_MEP.QMRegion E -2202.337961841486
  H       8.753418     -5.057230     -2.969465
  O       8.052883     -5.494486     -2.426211
  H       8.040457     -6.442215     -2.615080
  H       6.494896     -4.156315     -0.665464
  O       7.156908     -4.539746     -0.054534
  H       7.756170     -4.976645     -0.700038
  H       6.389665     -5.961681      0.680856
  O       6.079658     -6.697220      1.261258
  H       5.177018     -6.413781      1.511202
  H       5.590734     -8.001320      0.126694
  O       5.323950     -8.726258     -0.479994
  H       4.508513     -8.387828     -0.906158
  H       7.530646     -2.595695      4.317857
  O       7.772972     -2.645315      3.370021
  H       7.191022     -3.362927      3.054142
  H       6.639013     -5.940581      2.723770
  O       6.756687     -5.271534      3.432704
  H       7.633740     -5.408398      3.835495
  H       9.313769      0.228743     -1.143047
  O       8.643487      0.472774     -0.498237
  H       8.367246     -0.380821     -0.123061
  H       7.966879     -3.055326      0.350302
  O       8.444147     -2.212098      0.530890
  H       8.521452     -2.199399      1.493481
  H       9.024268     -3.948880      4.052551
  O       9.278794     -4.801999      4.454826
  H       9.161443     -4.639386      5.397320
  H       6.557421     -8.531359     -1.637367
  O       7.224045     -8.282817     -2.337513
  H       7.269697     -9.032731     -2.935621
  H       9.709509     -2.286906     -1.097431
  O       9.935667     -1.965754     -1.984105
  H       9.066946     -1.703195     -2.359500
  S      10.555955     -5.847028      0.948949
  H      10.450205     -4.954054      1.954298
  H       9.828037     -6.757449      1.627616
36
Coordinates from ORCA-job neb_92_152_CI_MEP.QMRegion E -2202.337431762455
  H       8.760815     -5.041692     -2.940269
  O       8.065399     -5.470569     -2.383865
  H       8.047503     -6.420719     -2.561497
  H       6.496077     -4.109920     -0.643466
  O       7.166337     -4.483479     -0.035237
  H       7.758074     -4.924363     -0.686448
  H       6.399865     -5.906652      0.710689
  O       6.100936     -6.646686      1.290479
  H       5.193874     -6.379136      1.543247
  H       5.594631     -7.947316      0.154118
  O       5.329775     -8.678662     -0.445342
  H       4.515742     -8.348498     -0.879897
  H       7.567367     -2.562050      4.323226
  O       7.806490     -2.611909      3.375743
  H       7.233792     -3.341597      3.069972
  H       6.677288     -5.897812      2.751108
  O       6.785124     -5.223434      3.456749
  H       7.645858     -5.365349      3.893438
  H       9.326563      0.268648     -1.116758
  O       8.654649      0.508249     -0.472146
  H       8.385169     -0.346621     -0.094040
  H       7.975910     -2.995100      0.379995
  O       8.466826     -2.162678      0.571155
  H       8.511062     -2.143956      1.536662
  H       9.103448     -3.951584      4.139983
  O       9.251017     -4.783347      4.624443
  H       9.004128     -4.542774      5.525379
  H       6.567643     -8.488176     -1.597999
  O       7.233245     -8.244250     -2.300680
  H       7.297271     -9.006525     -2.880977
  H       9.719368     -2.257365     -1.085845
  O       9.936778     -1.951814     -1.979516
  H       9.066471     -1.690032     -2.351582
  S      10.740383     -5.680343      1.045583
  H      10.346313     -4.636007      1.802457
  H       9.968982     -6.536570      1.746334
36
Coordinates from ORCA-job neb_92_152_CI_MEP.QMRegion E -2202.337255363564
  H       8.765358     -5.038798     -2.933949
  O       8.073205     -5.468196     -2.372850
  H       8.051194     -6.418262     -2.552216
  H       6.489154     -4.099591     -0.624833
  O       7.172373     -4.479714     -0.035978
  H       7.744012     -4.918662     -0.708130
  H       6.399500     -5.901903      0.718142
  O       6.104087     -6.641843      1.298698
  H       5.197402     -6.375679      1.555226
  H       5.594125     -7.940042      0.158379
  O       5.330926     -8.670944     -0.442198
  H       4.516183     -8.342512     -0.876793
  H       7.609544     -2.554868      4.303343
  O       7.809832     -2.597189      3.348996
  H       7.250042     -3.345906      3.068121
  H       6.692960     -5.892817      2.766684
  O       6.796354     -5.208951      3.462689
  H       7.643867     -5.353833      3.925903
  H       9.330438      0.272684     -1.114313
  O       8.656657      0.508236     -0.470197
  H       8.396111     -0.347064     -0.087498
  H       7.986061     -2.989326      0.383534
  O       8.497350     -2.172213      0.584019
  H       8.501360     -2.141190      1.551758
  H       9.286625     -4.076213      4.183043
  O       9.193388     -4.828719      4.785790
  H       8.802477     -4.414262      5.566486
  H       6.567966     -8.481484     -1.593649
  O       7.233708     -8.237770     -2.296611
  H       7.299608     -9.000947     -2.875544
  H       9.726423     -2.248433     -1.084689
  O       9.938088     -1.948638     -1.981386
  H       9.066311     -1.687072     -2.350458
  S      10.900947     -5.541518      1.215482
  H      10.161813     -4.457691      1.528259
  H       9.995651     -6.380941      1.758931
36
Coordinates from ORCA-job neb_92_152_CI_MEP.QMRegion E -2202.339411477339
  H       8.771087     -5.017112     -2.927494
  O       8.090408     -5.445813     -2.350261
  H       8.051150     -6.394166     -2.538795
  H       6.491295     -4.052370     -0.615911
  O       7.185327     -4.427787     -0.036268
  H       7.741511     -4.871351     -0.719165
  H       6.407196     -5.848459      0.722314
  O       6.119935     -6.596069      1.295857
  H       5.212164     -6.341681      1.560446
  H       5.607750     -7.884110      0.150914
  O       5.353268     -8.618840     -0.449372
  H       4.531845     -8.304225     -0.880924
  H       7.641228     -2.514938      4.279559
  O       7.796251     -2.541357      3.318977
  H       7.255970     -3.310041      3.057511
  H       6.722503     -5.846024      2.777022
  O       6.810440     -5.158755      3.469372
  H       7.656427     -5.290350      3.943217
  H       9.346775      0.319644     -1.122442
  O       8.677162      0.545587     -0.470578
  H       8.429806     -0.311935     -0.084546
  H       8.004709     -2.937506      0.382269
  O       8.545188     -2.141937      0.590551
  H       8.527757     -2.109043      1.559885
  H       9.526615     -4.252641      4.230444
  O       9.150102     -4.847103      4.892201
  H       8.713500     -4.244633      5.512630
  H       6.587389     -8.437266     -1.589278
  O       7.256071     -8.196658     -2.292644
  H       7.328595     -8.962841     -2.866641
  H       9.746210     -2.201566     -1.090041
  O       9.949154     -1.926955     -1.996614
  H       9.075350     -1.664309     -2.360540
  S      10.973702     -5.264527      1.588967
  H      10.089792     -4.296752      1.270284
  H      10.006928     -6.200360      1.684727
36
Coordinates from ORCA-job neb_92_152_CI_MEP.QMRegion E -2202.342882198870
  H       8.768527     -5.063990     -2.965823
  O       8.085111     -5.504714     -2.403512
  H       8.059323     -6.453702     -2.594100
  H       6.470882     -4.157208     -0.603262
  O       7.177543     -4.562930     -0.064291
  H       7.708668     -4.991001     -0.776882
  H       6.412256     -5.987694      0.720689
  O       6.095279     -6.723161      1.292957
  H       5.201902     -6.424539      1.558869
  H       5.618675     -8.000077      0.141966
  O       5.366474     -8.710647     -0.489733
  H       4.545417     -8.377148     -0.906725
  H       7.456104     -2.575651      4.181808
  O       7.463023     -2.594345      3.210531
  H       7.044437     -3.454484      3.016604
  H       6.727685     -5.961055      2.795164
  O       6.794611     -5.248098      3.459811
  H       7.659181     -5.312772      3.921589
  H       9.304077      0.209028     -1.140216
  O       8.628216      0.450215     -0.500638
  H       8.368350     -0.396988     -0.102253
  H       7.994782     -3.078768      0.363313
  O       8.441330     -2.246334      0.642947
  H       8.186587     -2.191842      1.584942
  H       9.649273     -4.374466      4.251746
  O       9.093975     -4.864951      4.883351
  H       8.682012     -4.176025      5.425988
  H       6.601933     -8.502174     -1.624692
  O       7.266977     -8.251549     -2.328132
  H       7.352303     -9.018757     -2.899055
  H       9.716068     -2.252652     -1.092494
  O       9.923784     -1.952123     -1.987314
  H       9.048492     -1.699119     -2.359756
  S      11.143816     -3.551306      2.451158
  H      10.169507     -3.106473      1.615616
  H      11.249328     -4.726330      1.798077
