27
Coordinates from ORCA-job neb_115_208_CI_MEP.QMRegion E -1988.356598386066
  H      -3.559170      6.382060     -0.506388
  O      -3.373479      7.046689     -1.225451
  H      -3.147317      7.889845     -0.781071
  H      -1.847204      9.707990     -0.797365
  O      -2.643310      9.485965     -0.250027
  H      -3.333899     10.144507     -0.456452
  H      -2.246714      8.803196      1.313847
  O      -2.127714      8.223817      2.090609
  H      -1.371944      7.644753      1.866554
  H      -4.344096      6.413592      3.474348
  O      -4.532211      6.902108      2.652368
  H      -3.704599      7.395783      2.482329
  H      -1.833715      9.041766      3.625768
  O      -1.617737      9.311791      4.543069
  H      -2.473930      9.314521      5.007446
  H      -4.032869      8.569843      6.826318
  O      -4.126053      8.642564      5.871192
  H      -4.164351      7.711415      5.575420
  H      -2.002579     10.086205     -3.167415
  O      -2.829732     10.154396     -3.662453
  H      -2.997854     11.099692     -3.708763
  H      -4.340619      8.852147     -3.410306
  O      -5.070711      8.336279     -3.032940
  H      -4.633744      7.802367     -2.337439
  S      -5.492238     10.982380     -0.949492
  H      -6.039337     10.293130      0.074471
  H      -5.571852      9.910917     -1.792858
27
Coordinates from ORCA-job neb_115_208_CI_MEP.QMRegion E -1988.352253054491
  H      -3.553494      6.389346     -0.524195
  O      -3.380585      7.039023     -1.255942
  H      -3.207345      7.904223     -0.838989
  H      -1.862122      9.736749     -0.863545
  O      -2.661634      9.507502     -0.319372
  H      -3.284266     10.250844     -0.350687
  H      -2.223261      8.779355      1.194980
  O      -2.110981      8.204036      1.977837
  H      -1.348886      7.624492      1.772458
  H      -4.328921      6.442743      3.451389
  O      -4.504314      6.939122      2.632079
  H      -3.656525      7.392899      2.443734
  H      -1.773796      8.994982      3.510420
  O      -1.585071      9.281055      4.429807
  H      -2.458422      9.301093      4.861408
  H      -3.987239      8.665354      6.664472
  O      -4.103319      8.693545      5.709485
  H      -4.155171      7.749671      5.460886
  H      -2.026158      9.968937     -3.381000
  O      -2.839030     10.050566     -3.893393
  H      -2.989959     10.999520     -3.944015
  H      -4.428869      8.877137     -3.464321
  O      -5.146586      8.352588     -3.079399
  H      -4.704747      7.823853     -2.392488
  S      -5.622341     10.996629      0.082776
  H      -5.601220     11.238283      1.409398
  H      -5.894751      9.689447      0.275058
27
Coordinates from ORCA-job neb_115_208_CI_MEP.QMRegion E -1988.350154411606
  H      -3.545257      6.407476     -0.512371
  O      -3.368971      7.060913     -1.238407
  H      -3.211991      7.923504     -0.814307
  H      -1.850665      9.757986     -0.834862
  O      -2.645635      9.554617     -0.274862
  H      -3.233233     10.320369     -0.290895
  H      -2.203251      8.824982      1.240148
  O      -2.088126      8.248175      2.021493
  H      -1.335431      7.660803      1.805649
  H      -4.328160      6.486476      3.460926
  O      -4.481861      6.974648      2.632330
  H      -3.623264      7.412372      2.452214
  H      -1.775382      9.042984      3.563798
  O      -1.572300      9.310573      4.485133
  H      -2.436695      9.330590      4.932985
  H      -3.950826      8.642385      6.759482
  O      -4.075341      8.688284      5.805770
  H      -4.131677      7.749855      5.539436
  H      -1.988076     10.077666     -3.269048
  O      -2.810324     10.146541     -3.761711
  H      -2.968704     11.099177     -3.825419
  H      -4.407859      8.892647     -3.445040
  O      -5.134041      8.357130     -3.095128
  H      -4.724934      7.852801     -2.372842
  S      -5.788497     10.552471      0.602123
  H      -6.132717     11.526885      1.475345
  H      -5.568719      9.656368      1.589060
27
Coordinates from ORCA-job neb_115_208_CI_MEP.QMRegion E -1988.347304502148
  H      -3.542031      6.375762     -0.513229
  O      -3.361113      7.028722     -1.239922
  H      -3.218484      7.892461     -0.814485
  H      -1.827251      9.697145     -0.825611
  O      -2.637834      9.515700     -0.279324
  H      -3.214550     10.278819     -0.384499
  H      -2.224717      8.791212      1.267748
  O      -2.111944      8.210871      2.044359
  H      -1.354660      7.629684      1.827401
  H      -4.343283      6.446294      3.475838
  O      -4.504379      6.937405      2.649900
  H      -3.648626      7.380422      2.471767
  H      -1.808203      9.019761      3.584050
  O      -1.599941      9.296415      4.501130
  H      -2.459872      9.308717      4.958091
  H      -3.963853      8.586248      6.803647
  O      -4.094890      8.646847      5.851954
  H      -4.143228      7.711345      5.570612
  H      -1.993829     10.041071     -3.231241
  O      -2.834680     10.105289     -3.700515
  H      -2.980834     11.050403     -3.796861
  H      -4.411735      8.847083     -3.404426
  O      -5.152093      8.323077     -3.068959
  H      -4.763484      7.811472     -2.340117
  S      -5.515180     10.645055      1.003457
  H      -6.697536     11.196163      1.342094
  H      -5.546132      9.738331      2.000853
27
Coordinates from ORCA-job neb_115_208_CI_MEP.QMRegion E -1988.350950269649
  H      -3.531959      6.383500     -0.504764
  O      -3.351438      7.041143     -1.227231
  H      -3.183537      7.898529     -0.794395
  H      -1.843986      9.728052     -0.805827
  O      -2.629581      9.501973     -0.243637
  H      -3.244913     10.248044     -0.262520
  H      -2.197773      8.806676      1.285369
  O      -2.079536      8.244908      2.077259
  H      -1.331424      7.652765      1.858517
  H      -4.322247      6.468301      3.481688
  O      -4.471003      6.955305      2.650421
  H      -3.610694      7.393039      2.478930
  H      -1.775977      9.057054      3.612678
  O      -1.556136      9.322881      4.530316
  H      -2.409771      9.341053      4.998384
  H      -3.894362      8.592526      6.849309
  O      -4.032175      8.667050      5.899575
  H      -4.105280      7.737746      5.606888
  H      -1.961658     10.101596     -3.157693
  O      -2.800640     10.179992     -3.630304
  H      -2.937209     11.127760     -3.710131
  H      -4.399725      8.880939     -3.385393
  O      -5.120436      8.328386     -3.053251
  H      -4.706332      7.820359     -2.334172
  S      -5.165014     11.128401      1.284143
  H      -6.403487     10.981001      0.770856
  H      -5.225457      9.940298      1.922709
27
Coordinates from ORCA-job neb_115_208_CI_MEP.QMRegion E -1988.351825661496
  H      -3.531820      6.365575     -0.502606
  O      -3.345597      7.031820     -1.216740
  H      -3.160637      7.876533     -0.766786
  H      -1.794287      9.677026     -0.733549
  O      -2.558228      9.433066     -0.149683
  H      -3.130081     10.211239     -0.049846
  H      -2.185925      8.746137      1.362914
  O      -2.093531      8.197551      2.170276
  H      -1.350622      7.596454      1.958088
  H      -4.354411      6.430105      3.488203
  O      -4.503797      6.923047      2.660717
  H      -3.645799      7.372363      2.508025
  H      -1.804238      9.045635      3.669292
  O      -1.572182      9.342346      4.576065
  H      -2.410803      9.327317      5.071215
  H      -3.825233      8.499230      6.944800
  O      -4.003221      8.623734      6.006799
  H      -4.095142      7.710119      5.670751
  H      -1.972521     10.144758     -3.046269
  O      -2.820307     10.234744     -3.501859
  H      -3.009362     11.175842     -3.457223
  H      -4.400475      8.878960     -3.345978
  O      -5.112554      8.305213     -3.031989
  H      -4.693854      7.797118     -2.315032
  S      -4.946770     11.288224      1.188082
  H      -5.552383     10.086254      1.305371
  H      -4.333695     11.152939      2.382964
27
Coordinates from ORCA-job neb_115_208_CI_MEP.QMRegion E -1988.353839151694
  H      -3.540566      6.390645     -0.497806
  O      -3.356022      7.056045     -1.213215
  H      -3.236927      7.910948     -0.770486
  H      -1.819383      9.758233     -0.732731
  O      -2.609613      9.542920     -0.174888
  H      -2.946599     10.361407      0.218946
  H      -2.212044      8.697953      1.263026
  O      -2.125522      8.128737      2.058105
  H      -1.360088      7.549868      1.861108
  H      -4.366022      6.408456      3.465830
  O      -4.530557      6.914614      2.650856
  H      -3.670661      7.350624      2.472473
  H      -1.892381      8.934670      3.569433
  O      -1.745441      9.291178      4.474979
  H      -2.610687      9.203141      4.921621
  H      -4.291870      8.677747      6.629712
  O      -4.256294      8.635890      5.669022
  H      -4.245552      7.675340      5.476371
  H      -1.978644     10.094724     -3.167047
  O      -2.800872     10.181149     -3.667323
  H      -3.103447     11.069666     -3.458566
  H      -4.336731      8.855015     -3.429990
  O      -5.083694      8.333218     -3.101620
  H      -4.703382      7.831515     -2.361760
  S      -4.083345     11.285879      2.366360
  H      -4.679792     10.126625      2.720243
  H      -3.046770     11.054073      3.202738
