18
Coordinates from ORCA-job neb_21_444_CI_MEP.QMRegion E -1774.358506389767
  H      -2.160530     -8.085191      0.622341
  O      -1.768611     -7.547243      1.343950
  H      -2.500359     -7.143350      1.815614
  H      -5.818753     -7.874783     -0.697070
  O      -5.048745     -7.975482     -0.082616
  H      -5.032437     -7.195689      0.500275
  H      -2.899704     -9.864363     -0.505359
  O      -2.712717     -8.977539     -0.848043
  H      -3.593866     -8.531682     -0.750613
  H      -7.784452     -8.494511     -1.630215
  O      -7.059017     -7.915151     -1.878924
  H      -7.456297     -7.006466     -1.828881
  H      -2.242343     -8.817900     -2.717748
  O      -2.046024     -8.454314     -3.598777
  H      -1.364852     -9.002659     -4.015610
  S      -4.603184    -11.150447      0.942002
  H      -5.125515     -9.915951      0.723849
  H      -4.173219    -10.808495      2.175038
18
Coordinates from ORCA-job neb_21_444_CI_MEP.QMRegion E -1774.357179147454
  H      -2.155888     -8.053857      0.708020
  O      -1.733171     -7.510733      1.404133
  H      -2.435968     -7.123990      1.930100
  H      -5.772278     -7.853705     -0.538668
  O      -4.989600     -7.970472      0.055598
  H      -4.963557     -7.187760      0.637510
  H      -2.938919     -9.773357     -0.755104
  O      -2.688726     -8.845586     -0.868458
  H      -3.561073     -8.392771     -0.705439
  H      -7.794539     -8.455700     -1.282285
  O      -7.076592     -7.924806     -1.637343
  H      -7.458772     -7.008983     -1.673821
  H      -2.255650     -8.696529     -2.697068
  O      -2.053663     -8.396039     -3.603208
  H      -1.369850     -8.962972     -3.986581
  S      -5.037471    -11.291279     -0.426280
  H      -5.296695    -10.130998      0.221661
  H      -4.545173    -11.885033      0.679814
18
Coordinates from ORCA-job neb_21_444_CI_MEP.QMRegion E -1774.352731301088
  H      -2.167795     -8.063079      0.636344
  O      -1.752532     -7.538280      1.349183
  H      -2.464743     -7.146957      1.859796
  H      -5.773728     -7.883079     -0.615914
  O      -4.997993     -7.993078     -0.009469
  H      -4.978185     -7.209977      0.570753
  H      -2.914586     -9.821416     -0.810682
  O      -2.721198     -8.886763     -0.930845
  H      -3.608689     -8.460919     -0.753308
  H      -7.778076     -8.489377     -1.445478
  O      -7.058174     -7.923810     -1.737774
  H      -7.455114     -7.014013     -1.732817
  H      -2.276466     -8.721847     -2.761728
  O      -2.050692     -8.395825     -3.651189
  H      -1.371842     -8.963880     -4.043484
  S      -5.569977    -11.364970     -0.420639
  H      -5.439770    -10.175593      0.210747
  H      -4.469686    -11.880565      0.166154
18
Coordinates from ORCA-job neb_21_444_CI_MEP.QMRegion E -1774.351100591399
  H      -2.192512     -8.011275      0.639404
  O      -1.767344     -7.508545      1.361809
  H      -2.473005     -7.116941      1.881669
  H      -5.804809     -7.887313     -0.617658
  O      -5.028894     -8.002635     -0.008431
  H      -5.002833     -7.220926      0.574066
  H      -2.864482     -9.785024     -0.713881
  O      -2.743333     -8.852755     -0.913077
  H      -3.647076     -8.458765     -0.726431
  H      -7.781222     -8.498491     -1.455176
  O      -7.068573     -7.916890     -1.733751
  H      -7.474888     -7.010587     -1.723557
  H      -2.292787     -8.716701     -2.755844
  O      -2.061485     -8.394744     -3.644716
  H      -1.383195     -8.965084     -4.033810
  S      -5.830389    -11.428262     -0.027741
  H      -5.528159    -10.143224      0.272345
  H      -4.534900    -11.755199     -0.231943
18
Coordinates from ORCA-job neb_21_444_CI_MEP.QMRegion E -1774.352561649231
  H      -2.183397     -8.029729      0.584192
  O      -1.773426     -7.530143      1.317682
  H      -2.491534     -7.146915      1.826458
  H      -5.802841     -7.876488     -0.694203
  O      -5.024286     -7.995434     -0.089689
  H      -5.005118     -7.230610      0.513646
  H      -2.851437     -9.818166     -0.687973
  O      -2.736366     -8.901518     -0.953419
  H      -3.634086     -8.493309     -0.779478
  H      -7.779992     -8.501821     -1.499181
  O      -7.075684     -7.921966     -1.802404
  H      -7.478377     -7.014010     -1.772322
  H      -2.283115     -8.749928     -2.790546
  O      -2.056965     -8.403302     -3.670783
  H      -1.376859     -8.962692     -4.074397
  S      -5.623581    -11.483559      0.135780
  H      -5.489365    -10.137177      0.168526
  H      -4.712477    -11.621284     -0.848099
18
Coordinates from ORCA-job neb_21_444_CI_MEP.QMRegion E -1774.357046604177
  H      -2.186406     -8.046065      0.520560
  O      -1.797159     -7.542915      1.264716
  H      -2.532538     -7.160574      1.748948
  H      -5.832504     -7.827132     -0.775443
  O      -5.051905     -7.944370     -0.178252
  H      -5.040735     -7.199047      0.447330
  H      -2.939982     -9.826250     -0.724796
  O      -2.754031     -8.921040     -1.005641
  H      -3.630312     -8.470039     -0.864667
  H      -7.831606     -8.473166     -1.565303
  O      -7.120324     -7.916572     -1.894357
  H      -7.499263     -6.998197     -1.840737
  H      -2.289038     -8.757657     -2.819023
  O      -2.059660     -8.395477     -3.693375
  H      -1.381764     -8.951420     -4.105464
  S      -5.093035    -11.406931      0.034991
  H      -5.429724    -10.096325      0.067229
  H      -5.086365    -11.445059     -1.311758
18
Coordinates from ORCA-job neb_21_444_CI_MEP.QMRegion E -1774.358886779328
  H      -2.139233     -8.185237      0.617203
  O      -1.751734     -7.631583      1.324775
  H      -2.487613     -7.280329      1.830392
  H      -5.811422     -7.886682     -0.574834
  O      -4.994208     -7.971151     -0.034169
  H      -4.974028     -7.197981      0.558472
  H      -3.010056     -9.825015     -0.992714
  O      -2.724809     -8.900459     -0.989256
  H      -3.584667     -8.433934     -0.799135
  H      -7.938123     -8.439064     -1.272373
  O      -7.196781     -7.970207     -1.665995
  H      -7.517774     -7.029718     -1.705234
  H      -2.280273     -8.696852     -2.756806
  O      -2.060325     -8.390076     -3.658244
  H      -1.378392     -8.960667     -4.040417
  S      -5.087878    -11.201392     -1.616580
  H      -5.539121    -10.625603     -0.484470
  H      -5.505010    -10.154290     -2.358489
