30
Coordinates from ORCA-job neb_2_204_CI_MEP.QMRegion E -2059.691990978845
  H       0.275902      6.829594      2.649373
  O      -0.019314      6.577108      1.757383
  H       0.638618      5.899605      1.482377
  H      -0.513840      8.776547     -2.307624
  O      -0.324869      9.550469     -1.727794
  H       0.413675      9.259221     -1.143680
  H      -1.739959      9.556081     -0.858753
  O      -2.630688      9.480352     -0.423985
  H      -3.195382     10.039511     -0.970846
  H      -2.467494      8.749511      1.197137
  O      -2.297425      8.174356      1.964701
  H      -1.591877      7.555665      1.697564
  H      -1.896230      8.942698      3.469511
  O      -1.647497      9.256569      4.370657
  H      -2.501112      9.299479      4.849108
  H      -2.266344     10.763510     -3.324330
  O      -3.201085     10.657854     -3.093254
  H      -3.611978     11.443201     -3.465321
  H       1.956708      8.252707      0.668306
  O       1.664804      8.521075     -0.237851
  H       2.486330      8.512756     -0.766217
  H       0.429250      8.674984      4.310217
  O       1.077476      8.000620      4.057236
  H       1.306786      7.532102      4.890117
  H       3.714584      8.214462      1.891134
  O       2.907361      7.672441      2.011528
  H       2.486767      7.919118      2.854909
  S      -0.146928     12.382346     -3.387614
  H       0.756752     12.042885     -4.328160
  H       0.115035     11.276501     -2.640677
30
Coordinates from ORCA-job neb_2_204_CI_MEP.QMRegion E -2059.688550056620
  H       0.280762      6.813010      2.625004
  O      -0.021549      6.561330      1.735157
  H       0.633254      5.880116      1.458838
  H      -0.619655      8.760780     -2.342509
  O      -0.449892      9.548913     -1.770601
  H       0.309827      9.274408     -1.211081
  H      -1.803658      9.525849     -0.849389
  O      -2.679225      9.458869     -0.374508
  H      -3.268720     10.029885     -0.879169
  H      -2.471328      8.732549      1.219732
  O      -2.288469      8.155812      1.983867
  H      -1.592692      7.532879      1.701120
  H      -1.872721      8.929045      3.470033
  O      -1.622897      9.253154      4.367966
  H      -2.475833      9.305333      4.845091
  H      -2.199738     10.658407     -3.044925
  O      -3.163654     10.620642     -3.047613
  H      -3.435820     11.410300     -3.524832
  H       1.922771      8.260114      0.601277
  O       1.627568      8.544040     -0.298734
  H       2.447148      8.517100     -0.830633
  H       0.476365      8.645601      4.266324
  O       1.112082      7.959125      4.015902
  H       1.337638      7.497830      4.853950
  H       3.700212      8.183946      1.809476
  O       2.890176      7.642364      1.926058
  H       2.484564      7.871455      2.781326
  S      -0.055430     12.995148     -2.133609
  H       0.984394     12.870547     -2.981761
  H       0.184732     11.784883     -1.590640
30
Coordinates from ORCA-job neb_2_204_CI_MEP.QMRegion E -2059.687321548759
  H       0.263695      6.819671      2.641956
  O      -0.032930      6.569832      1.749470
  H       0.624701      5.892181      1.473443
  H      -0.678418      8.759246     -2.358173
  O      -0.531578      9.580603     -1.825750
  H       0.247685      9.358301     -1.276950
  H      -1.848780      9.549022     -0.845842
  O      -2.706319      9.460051     -0.342068
  H      -3.319641     10.042704     -0.802402
  H      -2.488244      8.743827      1.243607
  O      -2.303589      8.171895      2.011741
  H      -1.611809      7.544957      1.729500
  H      -1.888462      8.948429      3.493654
  O      -1.634613      9.267483      4.392099
  H      -2.486862      9.311189      4.872609
  H      -2.229315     10.578288     -2.977029
  O      -3.194245     10.596213     -3.027849
  H      -3.404803     11.360817     -3.569011
  H       1.886068      8.292015      0.596806
  O       1.597418      8.570210     -0.305807
  H       2.422193      8.533382     -0.828461
  H       0.443087      8.658502      4.293091
  O       1.082980      7.978014      4.035752
  H       1.316838      7.514020      4.869947
  H       3.683835      8.194495      1.820925
  O       2.872083      7.656689      1.935252
  H       2.467121      7.887833      2.790142
  S      -0.074800     13.071895     -1.119947
  H       0.957118     13.205032     -1.976141
  H       0.410745     11.910247     -0.639289
30
Coordinates from ORCA-job neb_2_204_CI_MEP.QMRegion E -2059.687411918836
  H       0.264968      6.821284      2.638990
  O      -0.033479      6.569615      1.747635
  H       0.624307      5.891995      1.471859
  H      -0.715932      8.761308     -2.371777
  O      -0.591730      9.602370     -1.863402
  H       0.213128      9.431120     -1.338244
  H      -1.882548      9.557396     -0.843111
  O      -2.726236      9.453720     -0.321284
  H      -3.353776     10.047137     -0.746175
  H      -2.487126      8.744149      1.258178
  O      -2.302003      8.171195      2.025670
  H      -1.612591      7.543006      1.740672
  H      -1.884936      8.952254      3.501526
  O      -1.630438      9.270698      4.400223
  H      -2.482850      9.313910      4.880533
  H      -2.221468     10.483931     -2.977668
  O      -3.186665     10.567983     -3.040565
  H      -3.338894     11.284292     -3.654547
  H       1.867927      8.317393      0.570686
  O       1.580493      8.593878     -0.331972
  H       2.407229      8.550062     -0.851207
  H       0.438699      8.654439      4.291362
  O       1.082506      7.978200      4.032230
  H       1.317609      7.513056      4.865379
  H       3.676319      8.194198      1.800497
  O       2.860754      7.661450      1.912888
  H       2.460933      7.890166      2.770518
  S      -0.163393     12.812687     -0.691263
  H       0.810935     13.703067     -0.442776
  H       0.562825     11.791541     -0.195435
30
Coordinates from ORCA-job neb_2_204_CI_MEP.QMRegion E -2059.687469049171
  H       0.270179      6.806095      2.648931
  O      -0.026642      6.563541      1.754650
  H       0.628002      5.883687      1.475600
  H      -0.699533      8.756776     -2.362104
  O      -0.581784      9.598584     -1.854541
  H       0.209233      9.426899     -1.309810
  H      -1.872398      9.567977     -0.817483
  O      -2.716949      9.439419     -0.304045
  H      -3.343922     10.052911     -0.698391
  H      -2.472148      8.732456      1.267826
  O      -2.293356      8.161855      2.039536
  H      -1.604955      7.530288      1.759258
  H      -1.878689      8.950050      3.508711
  O      -1.626858      9.273569      4.406995
  H      -2.480156      9.310270      4.886901
  H      -2.227324     10.430038     -2.957050
  O      -3.183794     10.544687     -3.046067
  H      -3.297478     11.217929     -3.720721
  H       1.880243      8.284795      0.596289
  O       1.587869      8.577752     -0.300115
  H       2.411008      8.543546     -0.825398
  H       0.440033      8.647332      4.301692
  O       1.087894      7.975514      4.041321
  H       1.322716      7.508770      4.874097
  H       3.687458      8.185979      1.818585
  O       2.875160      7.648865      1.935167
  H       2.473735      7.877531      2.792031
  S       0.122522     12.499299     -0.243757
  H       0.071277     13.230067      0.893422
  H       0.909125     11.557411      0.317919
30
Coordinates from ORCA-job neb_2_204_CI_MEP.QMRegion E -2059.688628675844
  H       0.270837      6.793907      2.657320
  O      -0.025887      6.558247      1.761174
  H       0.626552      5.877562      1.478222
  H      -0.717333      8.757656     -2.340016
  O      -0.640546      9.615400     -1.850745
  H       0.158716      9.507531     -1.305774
  H      -1.912683      9.573803     -0.783869
  O      -2.751529      9.428669     -0.266666
  H      -3.395222     10.027677     -0.655701
  H      -2.474107      8.718887      1.291866
  O      -2.288259      8.148908      2.062360
  H      -1.600618      7.517781      1.778321
  H      -1.880215      8.939878      3.516884
  O      -1.627047      9.277295      4.410851
  H      -2.479133      9.311428      4.893749
  H      -2.224450     10.386312     -2.903162
  O      -3.175479     10.522637     -3.027809
  H      -3.249897     11.157633     -3.743494
  H       1.876942      8.265885      0.602165
  O       1.580642      8.566029     -0.289714
  H       2.401747      8.535179     -0.817768
  H       0.430787      8.635695      4.309958
  O       1.082950      7.968762      4.047828
  H       1.320738      7.502243      4.880403
  H       3.688086      8.179816      1.827082
  O       2.877412      7.640641      1.944988
  H       2.476502      7.866057      2.802656
  S       0.177868     12.113791      0.603393
  H      -0.351398     12.239440      1.838213
  H       1.073288     11.192661      1.012897
30
Coordinates from ORCA-job neb_2_204_CI_MEP.QMRegion E -2059.691373751270
  H       0.269061      6.810949      2.659931
  O      -0.030176      6.569985      1.766770
  H       0.623831      5.891625      1.483001
  H      -0.733762      8.761831     -2.326147
  O      -0.661279      9.619787     -1.836560
  H       0.142655      9.513671     -1.295491
  H      -1.947347      9.584019     -0.780772
  O      -2.790552      9.437616     -0.271989
  H      -3.439681     10.023282     -0.671601
  H      -2.470178      8.758873      1.312297
  O      -2.295977      8.164264      2.066353
  H      -1.593163      7.553226      1.775376
  H      -1.891822      8.930651      3.502454
  O      -1.630161      9.292021      4.389169
  H      -2.477789      9.341047      4.878685
  H      -2.199105     10.344111     -2.928471
  O      -3.140153     10.497997     -3.101773
  H      -3.165692     11.037328     -3.895256
  H       1.857845      8.298026      0.559270
  O       1.570395      8.569442     -0.341970
  H       2.396006      8.527221     -0.862654
  H       0.423218      8.654561      4.324564
  O       1.087047      8.001544      4.057847
  H       1.327053      7.527773      4.885881
  H       3.684281      8.186415      1.796253
  O       2.864614      7.660245      1.918923
  H       2.480166      7.884384      2.782939
  S       0.036218     11.232181      1.756894
  H      -0.558065     10.907477      2.927760
  H       1.115295     10.469025      2.019297
