21
Coordinates from ORCA-job neb_11_201_CI_MEP.QMRegion E -1845.688192028727
  H      -9.026006     -1.738998     -2.324355
  O      -8.537349     -1.573019     -1.493520
  H      -8.634319     -2.332433     -0.886009
  H      -7.829211     -3.792129      0.941351
  O      -8.553296     -3.745283      0.288643
  H      -8.302057     -4.386792     -0.410201
  H      -6.819802     -5.234391     -1.508356
  O      -7.749621     -5.466501     -1.748860
  H      -7.846664     -5.046624     -2.634068
  H      -7.001469     -3.395780     -3.559956
  O      -7.619040     -3.987072     -4.046296
  H      -7.059280     -4.445510     -4.713834
  H      -8.829625     -2.541826     -4.389687
  O      -9.359715     -1.771118     -4.115418
  H      -9.017592     -1.026651     -4.626119
  H      -7.901175     -8.145378     -0.410203
  O      -7.305177     -8.129920     -1.170992
  H      -7.474626     -7.240606     -1.543712
  S     -10.202882     -7.014299      0.618585
  H     -10.434410     -6.802110     -0.692522
  H      -9.716434     -5.763098      0.783770
21
Coordinates from ORCA-job neb_11_201_CI_MEP.QMRegion E -1845.682698500076
  H      -9.022620     -1.798759     -2.197548
  O      -8.486991     -1.582611     -1.409353
  H      -8.531823     -2.323043     -0.766495
  H      -7.748348     -3.754159      1.060268
  O      -8.435180     -3.692448      0.364715
  H      -8.169099     -4.357823     -0.300046
  H      -6.755588     -5.262657     -1.422498
  O      -7.682543     -5.516095     -1.663722
  H      -7.766530     -5.093550     -2.549107
  H      -6.957947     -3.406540     -3.475115
  O      -7.565266     -4.024038     -3.947028
  H      -7.011266     -4.458833     -4.633905
  H      -8.898666     -2.717663     -4.207374
  O      -9.507848     -2.007236     -3.926634
  H      -9.316253     -1.261178     -4.506026
  H      -7.829819     -8.374840     -0.661973
  O      -7.154293     -8.171771     -1.316140
  H      -7.353820     -7.241173     -1.564974
  S     -10.890682     -6.537369     -0.516366
  H     -10.887986     -5.872597     -1.689280
  H      -9.988348     -5.686768      0.013229
21
Coordinates from ORCA-job neb_11_201_CI_MEP.QMRegion E -1845.682444298791
  H      -9.027938     -1.800624     -2.205911
  O      -8.480449     -1.573082     -1.428909
  H      -8.497529     -2.317476     -0.786286
  H      -7.749442     -3.729841      1.016144
  O      -8.430435     -3.660449      0.317597
  H      -8.193915     -4.356440     -0.326228
  H      -6.773973     -5.264732     -1.438627
  O      -7.704034     -5.524840     -1.662874
  H      -7.806156     -5.119606     -2.553591
  H      -6.961062     -3.414726     -3.490487
  O      -7.567064     -4.035801     -3.958538
  H      -7.014113     -4.464306     -4.651604
  H      -8.925156     -2.764766     -4.181915
  O      -9.551318     -2.067069     -3.904992
  H      -9.382567     -1.325291     -4.496614
  H      -7.819813     -8.450534     -0.801165
  O      -7.134113     -8.157827     -1.407531
  H      -7.384108     -7.225685     -1.607832
  S     -11.122842     -6.270604     -0.949610
  H     -10.976680     -5.515536     -2.056786
  H     -10.091008     -5.650476     -0.344381
21
Coordinates from ORCA-job neb_11_201_CI_MEP.QMRegion E -1845.682394475707
  H      -9.049398     -1.807428     -2.244967
  O      -8.506890     -1.574209     -1.465994
  H      -8.525775     -2.318250     -0.823338
  H      -7.757972     -3.737875      0.982219
  O      -8.437564     -3.656928      0.285077
  H      -8.221899     -4.363537     -0.353177
  H      -6.788864     -5.266389     -1.456865
  O      -7.713779     -5.534878     -1.690419
  H      -7.819307     -5.124614     -2.578921
  H      -6.986005     -3.415447     -3.509245
  O      -7.592738     -4.034265     -3.978170
  H      -7.038111     -4.468711     -4.666290
  H      -8.974947     -2.802070     -4.206470
  O      -9.618960     -2.122260     -3.925554
  H      -9.476423     -1.378511     -4.521179
  H      -7.829851     -8.510141     -0.922673
  O      -7.112459     -8.170066     -1.463847
  H      -7.376665     -7.239451     -1.649487
  S     -11.271909     -6.078207     -1.303408
  H     -11.064400     -5.248109     -2.344437
  H     -10.159969     -5.638744     -0.684870
21
Coordinates from ORCA-job neb_11_201_CI_MEP.QMRegion E -1845.682334780280
  H      -9.070811     -1.825159     -2.229657
  O      -8.516120     -1.581478     -1.463474
  H      -8.532281     -2.316351     -0.809398
  H      -7.752922     -3.733632      1.007324
  O      -8.428728     -3.644577      0.306758
  H      -8.227368     -4.360275     -0.322970
  H      -6.786472     -5.267836     -1.448432
  O      -7.703010     -5.544399     -1.705283
  H      -7.793830     -5.121408     -2.590610
  H      -6.990264     -3.407412     -3.510480
  O      -7.596236     -4.028006     -3.978518
  H      -7.042437     -4.463853     -4.665973
  H      -9.009897     -2.846520     -4.187119
  O      -9.687611     -2.206412     -3.889794
  H      -9.632187     -1.471605     -4.510027
  H      -7.788560     -8.552098     -1.029457
  O      -7.054191     -8.181146     -1.525020
  H      -7.322766     -7.247919     -1.690854
  S     -11.354919     -5.805563     -1.737582
  H     -11.127470     -4.834375     -2.645851
  H     -10.168721     -5.583712     -1.138040
21
Coordinates from ORCA-job neb_11_201_CI_MEP.QMRegion E -1845.682226193326
  H      -9.087624     -1.804211     -2.274612
  O      -8.528459     -1.557907     -1.513289
  H      -8.542675     -2.287149     -0.854253
  H      -7.756599     -3.703423      0.969057
  O      -8.428018     -3.610309      0.265923
  H      -8.231545     -4.328039     -0.361685
  H      -6.786452     -5.235965     -1.508085
  O      -7.696518     -5.512628     -1.783333
  H      -7.779617     -5.082237     -2.666088
  H      -6.996571     -3.368720     -3.576429
  O      -7.604984     -3.982897     -4.047897
  H      -7.050096     -4.427217     -4.729742
  H      -9.038064     -2.835853     -4.235797
  O      -9.735084     -2.223371     -3.924613
  H      -9.741707     -1.499693     -4.559958
  H      -7.766710     -8.529028     -1.144383
  O      -7.018032     -8.151003     -1.612977
  H      -7.288642     -7.218952     -1.780831
  S     -11.364316     -5.646290     -2.004516
  H     -11.149316     -4.598084     -2.824882
  H     -10.159161     -5.501597     -1.419443
21
Coordinates from ORCA-job neb_11_201_CI_MEP.QMRegion E -1845.682673362797
  H      -9.107535     -1.819008     -2.266650
  O      -8.534726     -1.558171     -1.522159
  H      -8.534224     -2.284491     -0.858053
  H      -7.744177     -3.699687      0.948903
  O      -8.423629     -3.596396      0.255405
  H      -8.269696     -4.335093     -0.358510
  H      -6.796913     -5.230359     -1.510957
  O      -7.701365     -5.517392     -1.794445
  H      -7.781284     -5.084133     -2.675808
  H      -7.006971     -3.361482     -3.582320
  O      -7.614750     -3.977429     -4.052562
  H      -7.060158     -4.421344     -4.734975
  H      -9.085486     -2.894293     -4.207338
  O      -9.806425     -2.315057     -3.883412
  H      -9.885645     -1.611830     -4.536224
  H      -7.707895     -8.586564     -1.306427
  O      -6.953495     -8.136663     -1.694839
  H      -7.263090     -7.209871     -1.820830
  S     -11.382413     -5.303101     -2.491846
  H     -11.102360     -4.164280     -3.159846
  H     -10.151529     -5.346997     -1.945196
