27
Coordinates from ORCA-job neb_1_180_CI_MEP.QMRegion E -1988.350183678114
  H       0.632583     -5.025006      1.906949
  O       0.139739     -5.135416      2.741448
  H       0.256696     -6.074366      2.953445
  H       1.905125     -3.626880      4.225080
  O       1.762461     -4.020202      5.113249
  H       2.229853     -3.402237      5.704334
  H       3.333153     -6.063076      3.203831
  O       3.703316     -5.899385      2.303530
  H       2.980563     -5.559278      1.737734
  H       4.392257     -2.268201      5.617135
  O       4.011773     -2.678922      6.428397
  H       4.411372     -3.562699      6.422340
  H       2.345171     -5.513911      5.040865
  O       2.888676     -6.333436      4.839202
  H       2.391482     -7.120468      5.117138
  H       5.757784     -5.260921      4.785956
  O       5.320585     -5.210454      5.664392
  H       4.498067     -5.718832      5.548208
  H      -0.393709     -8.017266      2.174331
  O       0.444915     -7.954603      2.663268
  H       1.157470     -8.223677      2.054653
  H       3.681916     -8.924650      0.971410
  O       2.964429     -8.407288      1.355616
  H       3.389915     -7.590501      1.686919
  S       1.483607     -9.407066      5.412859
  H       0.821460     -9.044207      4.281898
  H       2.517428     -9.898145      4.698716
27
Coordinates from ORCA-job neb_1_180_CI_MEP.QMRegion E -1988.347584243266
  H       0.613727     -5.038600      1.902966
  O       0.123662     -5.136808      2.739314
  H       0.230257     -6.077286      2.965395
  H       1.926264     -3.563838      4.160559
  O       1.824911     -3.973940      5.050649
  H       2.356670     -3.391181      5.625926
  H       3.333233     -6.088520      3.073085
  O       3.717577     -5.913784      2.180612
  H       2.996761     -5.563004      1.615979
  H       4.443018     -2.253752      5.569937
  O       4.075643     -2.722944      6.357709
  H       4.463772     -3.610412      6.258279
  H       2.376448     -5.396088      4.877142
  O       2.870500     -6.255458      4.659140
  H       2.381729     -6.994740      5.045722
  H       5.764477     -5.245291      4.703575
  O       5.294012     -5.213270      5.568929
  H       4.469017     -5.705778      5.402091
  H      -0.443811     -8.007253      2.311946
  O       0.367264     -7.948475      2.844188
  H       1.086857     -8.235800      2.255988
  H       3.511972     -9.017039      0.964432
  O       2.823209     -8.427899      1.291170
  H       3.299090     -7.616954      1.560482
  S       2.350415     -9.162440      6.283699
  H       1.120312     -9.376731      5.774447
  H       2.945945     -9.488764      5.117964
27
Coordinates from ORCA-job neb_1_180_CI_MEP.QMRegion E -1988.343295710200
  H       0.634239     -5.009671      1.908316
  O       0.141200     -5.114466      2.742771
  H       0.258168     -6.054759      2.961838
  H       1.961381     -3.547714      4.170451
  O       1.883087     -3.971280      5.056546
  H       2.411956     -3.387629      5.633892
  H       3.352683     -6.065664      3.078569
  O       3.737219     -5.894738      2.182401
  H       3.015394     -5.549657      1.616056
  H       4.477635     -2.240973      5.581766
  O       4.114646     -2.703242      6.376800
  H       4.485354     -3.596864      6.277160
  H       2.418892     -5.391771      4.854523
  O       2.848063     -6.287701      4.631911
  H       2.176664     -6.958322      4.778475
  H       5.764128     -5.241359      4.693719
  O       5.317324     -5.197864      5.572299
  H       4.559055     -5.793980      5.492397
  H      -0.385123     -7.991862      2.346227
  O       0.436439     -7.903141      2.856599
  H       1.148603     -8.202776      2.263622
  H       3.543262     -9.007482      0.996918
  O       2.860159     -8.404880      1.310883
  H       3.343366     -7.595703      1.572765
  S       2.772452     -9.319427      6.594104
  H       1.466644     -9.179627      6.282886
  H       3.138413     -9.285062      5.296022
27
Coordinates from ORCA-job neb_1_180_CI_MEP.QMRegion E -1988.342398847713
  H       0.642349     -5.001045      1.906278
  O       0.145316     -5.108865      2.738603
  H       0.251549     -6.051901      2.945783
  H       1.986582     -3.577704      4.176806
  O       1.915323     -4.005314      5.059555
  H       2.418404     -3.405180      5.640591
  H       3.357729     -6.082315      3.095301
  O       3.744663     -5.896118      2.201494
  H       3.022534     -5.551847      1.635213
  H       4.490326     -2.229542      5.597152
  O       4.135724     -2.680702      6.401841
  H       4.463842     -3.586694      6.285066
  H       2.423293     -5.496289      4.854756
  O       2.747952     -6.419654      4.606979
  H       1.949897     -6.943428      4.477482
  H       5.742551     -5.206243      4.648986
  O       5.283479     -5.120079      5.519354
  H       4.767712     -5.923912      5.629308
  H      -0.359715     -7.998438      2.368068
  O       0.470030     -7.893656      2.860811
  H       1.176038     -8.206686      2.265222
  H       3.529268     -9.027490      1.023606
  O       2.856643     -8.401001      1.311755
  H       3.354926     -7.602516      1.576591
  S       2.992297     -9.511140      6.673098
  H       1.804048     -8.872440      6.644616
  H       3.304034     -9.067612      5.438615
27
Coordinates from ORCA-job neb_1_180_CI_MEP.QMRegion E -1988.343122118342
  H       0.648705     -4.973334      1.915772
  O       0.149215     -5.080867      2.746446
  H       0.262253     -6.021537      2.959151
  H       1.992761     -3.560400      4.205796
  O       1.917876     -3.978121      5.091798
  H       2.400775     -3.361824      5.671463
  H       3.349365     -6.057258      3.137708
  O       3.745558     -5.872325      2.244452
  H       3.026843     -5.531259      1.672706
  H       4.496715     -2.200840      5.613550
  O       4.130695     -2.618576      6.431961
  H       4.459387     -3.525685      6.365518
  H       2.420227     -5.499427      4.895371
  O       2.684935     -6.426821      4.612860
  H       1.853767     -6.879395      4.431198
  H       5.753256     -5.160762      4.649676
  O       5.291323     -5.036763      5.516219
  H       5.144795     -5.915311      5.872759
  H      -0.342994     -7.962133      2.380704
  O       0.483571     -7.850164      2.876456
  H       1.195926     -8.161673      2.287530
  H       3.568414     -8.972273      1.058842
  O       2.885116     -8.354689      1.340929
  H       3.371819     -7.555623      1.627269
  S       3.352441     -9.157021      6.871150
  H       2.197318     -8.485660      7.058717
  H       3.425217     -8.728041      5.595337
27
Coordinates from ORCA-job neb_1_180_CI_MEP.QMRegion E -1988.345970229657
  H       0.651131     -4.963368      1.913070
  O       0.150418     -5.073021      2.742925
  H       0.262621     -6.014356      2.951125
  H       1.998066     -3.566198      4.209800
  O       1.926477     -3.985565      5.094908
  H       2.414343     -3.372487      5.673834
  H       3.342265     -6.059439      3.139177
  O       3.746924     -5.865087      2.252230
  H       3.029924     -5.526333      1.677066
  H       4.499090     -2.205163      5.614904
  O       4.126220     -2.616473      6.433778
  H       4.474353     -3.517475      6.395969
  H       2.398295     -5.526102      4.896317
  O       2.635333     -6.453018      4.590811
  H       1.794688     -6.875306      4.382331
  H       5.776285     -5.177660      4.679902
  O       5.328217     -5.053430      5.554194
  H       5.356370     -5.904901      6.000365
  H      -0.330311     -7.957527      2.371125
  O       0.496634     -7.840065      2.864441
  H       1.211419     -8.150469      2.277233
  H       3.583237     -8.960368      1.064068
  O       2.897917     -8.340354      1.335614
  H       3.383435     -7.543989      1.631330
  S       3.831973     -8.678742      6.971602
  H       2.718201     -8.103840      7.472403
  H       3.534545     -8.217973      5.737873
27
Coordinates from ORCA-job neb_1_180_CI_MEP.QMRegion E -1988.350303495783
  H       0.644308     -4.976286      1.891256
  O       0.148063     -5.108528      2.721278
  H       0.257518     -6.057224      2.889935
  H       1.947597     -3.622587      4.211789
  O       1.835291     -4.050681      5.087819
  H       2.333307     -3.462393      5.684615
  H       3.326825     -6.060422      3.156062
  O       3.740472     -5.850907      2.281514
  H       3.026132     -5.515538      1.700884
  H       4.388263     -2.234905      5.621522
  O       3.988749     -2.636905      6.429869
  H       4.412384     -3.505653      6.460901
  H       2.262614     -5.607539      4.887050
  O       2.571916     -6.521998      4.609035
  H       1.780994     -7.008086      4.343464
  H       5.774990     -5.180778      4.740645
  O       5.343753     -5.027575      5.615315
  H       5.417667     -5.853436      6.117586
  H      -0.244047     -8.038910      2.277116
  O       0.593197     -7.889109      2.740514
  H       1.305824     -8.171689      2.135086
  H       3.724893     -8.890680      0.987130
  O       3.009202     -8.314144      1.279009
  H       3.454122     -7.511632      1.617781
  S       4.390832     -7.942941      7.037111
  H       3.650738     -7.419335      8.037670
  H       3.524203     -7.490839      6.086689
