30
Coordinates from ORCA-job neb_63_150_CI_MEP.QMRegion E -2059.690584598085
  H       4.462791     -2.631997      5.686879
  O       4.129178     -3.230616      6.382516
  H       4.468213     -4.112333      6.111398
  H       4.956675     -2.188586      3.604473
  O       4.957490     -1.474099      4.278523
  H       4.127269     -0.958958      4.095186
  H       1.975784     -0.804233      5.195015
  O       1.508796     -1.378226      5.833376
  H       1.468646     -0.941361      6.701073
  H       4.062534     -0.304116      6.757796
  O       4.385854      0.426777      7.294787
  H       5.060542      0.862449      6.737850
  H       6.562975      1.130699      4.791129
  O       6.144806      1.706260      5.462032
  H       6.292132      2.613073      5.092405
  H       7.557834     -0.464754      3.052930
  O       6.828281      0.119615      3.290085
  H       6.136880     -0.517421      3.611506
  H       7.614538     -2.619620      4.231418
  O       7.763992     -2.675917      3.272259
  H       7.267175     -3.478281      3.034085
  H       4.416355      2.070008      5.049124
  O       3.460155      2.260171      4.992954
  H       3.148671      2.269597      5.906054
  H       7.195801     -2.797739      6.865201
  O       7.330841     -3.274985      6.023659
  H       6.647226     -3.956399      6.021239
  S       6.180558     -2.096917      8.865122
  H       5.734169     -0.880845      8.467526
  H       5.170785     -2.703721      8.192099
30
Coordinates from ORCA-job neb_63_150_CI_MEP.QMRegion E -2059.685185072503
  H       4.382960     -2.636329      5.724593
  O       4.058204     -3.198591      6.456163
  H       4.391597     -4.085936      6.218326
  H       4.889140     -2.230389      3.639398
  O       4.876358     -1.530717      4.328673
  H       4.054160     -1.000541      4.139788
  H       1.959638     -0.847407      5.222896
  O       1.460774     -1.419528      5.836147
  H       1.434524     -0.998482      6.711387
  H       4.011930     -0.620927      7.207286
  O       4.178816      0.306883      7.305635
  H       4.843467      0.568060      6.645456
  H       6.475913      1.074301      4.770778
  O       6.072066      1.640423      5.459049
  H       6.240578      2.550473      5.111391
  H       7.425229     -0.595257      3.070201
  O       6.737345      0.042077      3.300609
  H       6.014077     -0.557875      3.623928
  H       7.483989     -2.713121      4.213990
  O       7.654522     -2.708104      3.257011
  H       7.182029     -3.511859      2.975150
  H       4.364244      2.039040      5.093461
  O       3.413787      2.247401      5.010265
  H       3.062499      2.218761      5.908191
  H       7.101165     -2.980791      6.813131
  O       7.196017     -3.467490      5.976009
  H       6.528409     -4.166467      5.992071
  S       6.847470     -1.577531      8.689112
  H       6.660503     -0.450138      7.971462
  H       5.561413     -1.949532      8.532895
30
Coordinates from ORCA-job neb_63_150_CI_MEP.QMRegion E -2059.683600006771
  H       4.426897     -2.555866      5.768692
  O       4.136786     -3.170137      6.469930
  H       4.458754     -4.042230      6.169228
  H       4.944793     -2.168338      3.614823
  O       4.966875     -1.461256      4.293048
  H       4.131014     -0.939855      4.147333
  H       2.014895     -0.850521      5.219100
  O       1.477510     -1.401359      5.818253
  H       1.525623     -1.010123      6.703272
  H       4.435959     -0.135498      7.903603
  O       4.114257      0.343465      7.125127
  H       4.896988      0.759632      6.733002
  H       6.566994      1.138871      4.835854
  O       6.183530      1.706028      5.535166
  H       6.321093      2.611629      5.162326
  H       7.541172     -0.453802      3.080829
  O       6.816126      0.137036      3.315369
  H       6.113546     -0.496611      3.631755
  H       7.554880     -2.640383      4.225533
  O       7.750960     -2.686791      3.277141
  H       7.258008     -3.483930      3.013014
  H       4.426582      2.099668      5.076568
  O       3.473096      2.280640      4.999146
  H       3.131926      2.260117      5.900875
  H       7.083040     -2.965493      6.846667
  O       7.233888     -3.434142      6.016008
  H       6.574538     -4.137067      6.009274
  S       6.830681     -1.265410      8.841690
  H       6.944392     -0.392630      7.818303
  H       5.778206     -1.905406      8.294081
30
Coordinates from ORCA-job neb_63_150_CI_MEP.QMRegion E -2059.684107436414
  H       4.320816     -2.561011      5.691947
  O       4.142721     -3.177496      6.429404
  H       4.438103     -4.050169      6.100084
  H       4.913356     -2.175091      3.611099
  O       4.932760     -1.480242      4.302184
  H       4.102953     -0.943089      4.156858
  H       1.993377     -0.865100      5.247992
  O       1.459869     -1.422224      5.842148
  H       1.509070     -1.034956      6.730514
  H       4.509274     -0.111278      7.942232
  O       4.105772      0.332057      7.182134
  H       4.854492      0.771354      6.745156
  H       6.535386      1.124660      4.860561
  O       6.145980      1.699609      5.548256
  H       6.287754      2.600779      5.168795
  H       7.522155     -0.482443      3.108428
  O       6.798078      0.113495      3.331992
  H       6.092280     -0.513771      3.647894
  H       7.524754     -2.695039      4.286416
  O       7.727542     -2.719768      3.338617
  H       7.227322     -3.509545      3.061046
  H       4.392837      2.075570      5.109689
  O       3.439958      2.259942      5.029304
  H       3.095510      2.227487      5.930660
  H       6.329194     -2.901293      6.404845
  O       7.081948     -3.468320      6.198926
  H       6.644505     -4.330988      6.130304
  S       6.574730     -0.898738      9.083826
  H       7.167491     -0.388882      7.983342
  H       6.352994     -2.083169      8.483397
30
Coordinates from ORCA-job neb_63_150_CI_MEP.QMRegion E -2059.683988054387
  H       4.344497     -2.518348      5.515267
  O       4.182401     -3.111328      6.273611
  H       4.475375     -3.997155      5.974332
  H       4.966879     -2.104422      3.491869
  O       5.007537     -1.397057      4.168622
  H       4.161436     -0.875435      4.062217
  H       2.015444     -0.850304      5.211107
  O       1.476064     -1.400083      5.809421
  H       1.532324     -1.009159      6.694313
  H       4.520955     -0.198368      7.734364
  O       4.105606      0.347390      7.054536
  H       4.861058      0.777733      6.619744
  H       6.594959      1.159034      4.788169
  O       6.199850      1.711927      5.490653
  H       6.325851      2.622824      5.125571
  H       7.629425     -0.379452      3.013217
  O       6.887681      0.179824      3.266433
  H       6.191009     -0.470565      3.563717
  H       7.547195     -2.648600      4.218531
  O       7.767908     -2.709542      3.276187
  H       7.264961     -3.500426      3.010508
  H       4.426516      2.113309      5.028438
  O       3.470663      2.283829      4.964331
  H       3.139058      2.251170      5.869762
  H       6.264395     -2.773009      6.259987
  O       7.066751     -3.301600      6.125025
  H       6.683754     -4.191092      6.097117
  S       6.874118     -0.597372      8.718370
  H       7.316029      0.104133      7.652268
  H       7.200639     -1.782049      8.161332
30
Coordinates from ORCA-job neb_63_150_CI_MEP.QMRegion E -2059.684454156382
  H       4.411934     -2.536133      5.547484
  O       4.141574     -3.106787      6.291443
  H       4.461033     -3.998175      6.045912
  H       4.967752     -2.104941      3.500997
  O       5.003957     -1.392177      4.172415
  H       4.152919     -0.880028      4.062121
  H       2.009703     -0.844269      5.220948
  O       1.466738     -1.393354      5.816908
  H       1.494590     -0.987405      6.696744
  H       4.238300     -0.535019      7.354487
  O       4.006017      0.303137      6.946067
  H       4.821714      0.637075      6.542537
  H       6.601689      1.159901      4.762478
  O       6.215062      1.701815      5.480733
  H       6.331604      2.618008      5.124791
  H       7.608094     -0.387694      3.004631
  O       6.876079      0.181324      3.265877
  H       6.173837     -0.465404      3.564627
  H       7.535170     -2.636681      4.179730
  O       7.750490     -2.691848      3.232603
  H       7.254018     -3.485054      2.965480
  H       4.427072      2.125375      5.014487
  O       3.473607      2.299156      4.942315
  H       3.131017      2.256597      5.842470
  H       6.725438     -2.547318      6.497215
  O       7.187278     -3.224625      5.982014
  H       6.560544     -3.959930      5.951561
  S       6.950949     -0.549810      8.241215
  H       7.220501      0.444699      7.365013
  H       8.168333     -1.111171      8.105564
30
Coordinates from ORCA-job neb_63_150_CI_MEP.QMRegion E -2059.686796283544
  H       4.417279     -2.583094      5.540370
  O       4.169256     -3.149380      6.296558
  H       4.472028     -4.050091      6.045869
  H       4.939288     -2.134418      3.527696
  O       4.954653     -1.426747      4.206971
  H       4.109007     -0.911825      4.072415
  H       1.992107     -0.820995      5.229598
  O       1.465532     -1.380779      5.830308
  H       1.457243     -0.951397      6.701221
  H       4.007028     -0.736600      7.246600
  O       3.950671      0.191141      7.000880
  H       4.749676      0.387259      6.498106
  H       6.600931      1.128632      4.644738
  O       6.219337      1.665258      5.374433
  H       6.350376      2.591985      5.048592
  H       7.521711     -0.542926      2.996396
  O       6.839675      0.090620      3.250959
  H       6.108765     -0.510856      3.574798
  H       7.539792     -2.654270      4.181597
  O       7.680361     -2.693418      3.215889
  H       7.190517     -3.498497      2.971520
  H       4.441287      2.095890      5.027050
  O       3.490070      2.288846      4.959124
  H       3.150158      2.260565      5.860684
  H       7.236793     -2.223519      6.521029
  O       7.330748     -3.024831      5.974816
  H       6.512083     -3.516152      6.117286
  S       7.501625     -0.208137      7.793046
  H       7.112663      0.740030      6.894168
  H       8.785533     -0.149716      7.384004
