33
Coordinates from ORCA-job neb_130_449_CI_MEP.QMRegion E -2131.025467730602
  H      -2.432670     -3.641596      1.958560
  O      -2.466391     -4.565343      2.289198
  H      -1.516794     -4.826434      2.374961
  H       0.725344     -5.013334      1.956124
  O       0.182835     -5.118679      2.763894
  H       0.379735     -6.034519      3.038771
  H      -2.181363     -8.096333      0.530380
  O      -1.797094     -7.618887      1.306353
  H      -2.548279     -7.310176      1.820420
  H      -5.414218     -5.127188      1.816148
  O      -4.761485     -5.774463      1.452003
  H      -3.897238     -5.337701      1.611666
  H      -5.839145     -3.128640      1.314002
  O      -6.320556     -3.672319      1.986253
  H      -6.145497     -3.204120      2.827441
  H      -5.985584     -8.018606     -0.617739
  O      -5.146018     -8.073033     -0.101878
  H      -5.128942     -7.282317      0.472199
  H      -2.899034     -9.734163     -0.769016
  O      -2.741132     -8.800624     -0.980047
  H      -3.648809     -8.412359     -0.882524
  H      -2.076264     -2.973830      4.591890
  O      -2.942269     -3.422473      4.702468
  H      -2.929791     -4.092885      3.997161
  H      -0.096480     -8.108279      2.573006
  O       0.731542     -7.871257      3.013402
  H       1.435027     -8.137081      2.388685
  H      -8.196410     -8.375756     -1.092620
  O      -7.432860     -8.004375     -1.543200
  H      -7.664875     -7.042049     -1.639598
  S      -4.386812    -11.294557      0.485779
  H      -5.161374    -11.667193     -0.552737
  H      -4.968032    -10.065855      0.550022
33
Coordinates from ORCA-job neb_130_449_CI_MEP.QMRegion E -2131.024391046363
  H      -2.420865     -3.638089      1.925610
  O      -2.448705     -4.561997      2.255955
  H      -1.496602     -4.819428      2.335684
  H       0.738426     -5.013294      1.928075
  O       0.192239     -5.127140      2.733155
  H       0.371775     -6.055596      2.979321
  H      -2.193005     -8.127847      0.477834
  O      -1.802201     -7.638516      1.241790
  H      -2.545090     -7.367054      1.787339
  H      -5.371256     -5.138465      1.802520
  O      -4.725493     -5.785035      1.425218
  H      -3.856851     -5.349399      1.571077
  H      -5.822172     -3.139843      1.306015
  O      -6.295444     -3.688346      1.980338
  H      -6.121580     -3.216299      2.819750
  H      -5.990989     -8.021927     -0.662947
  O      -5.146908     -8.048947     -0.150346
  H      -5.111921     -7.225651      0.376107
  H      -2.911212     -9.816605     -0.728665
  O      -2.792092     -8.894897     -0.986591
  H      -3.704681     -8.511757     -0.879257
  H      -2.073622     -2.974074      4.572847
  O      -2.937637     -3.427153      4.682706
  H      -2.923223     -4.086856      3.966880
  H      -0.095968     -8.137652      2.505315
  O       0.722342     -7.874145      2.948493
  H       1.437510     -8.139468      2.336229
  H      -8.190144     -8.394876     -1.143695
  O      -7.428761     -8.005581     -1.582513
  H      -7.668260     -7.043379     -1.660058
  S      -4.195464    -10.654987      1.677258
  H      -5.221729    -11.506375      1.484605
  H      -4.868903     -9.604109      1.129245
33
Coordinates from ORCA-job neb_130_449_CI_MEP.QMRegion E -2131.023568021210
  H      -2.413897     -3.632832      1.933057
  O      -2.441777     -4.556131      2.264652
  H      -1.490605     -4.815773      2.339183
  H       0.748078     -5.006494      1.929912
  O       0.205521     -5.116957      2.737835
  H       0.387006     -6.043429      2.988374
  H      -2.176335     -8.123526      0.489126
  O      -1.788035     -7.620026      1.241667
  H      -2.512773     -7.466033      1.854344
  H      -5.354525     -5.128391      1.797770
  O      -4.713878     -5.778533      1.418506
  H      -3.839485     -5.355569      1.568289
  H      -5.819473     -3.137535      1.305357
  O      -6.291566     -3.686893      1.979917
  H      -6.116939     -3.214986      2.819287
  H      -5.957747     -8.016493     -0.654389
  O      -5.114803     -8.046702     -0.139660
  H      -5.069593     -7.213958      0.373406
  H      -2.884646     -9.830514     -0.798771
  O      -2.782382     -8.893680     -0.991576
  H      -3.700193     -8.520944     -0.863198
  H      -2.073293     -2.965756      4.576104
  O      -2.936602     -3.420394      4.684672
  H      -2.917751     -4.080863      3.969090
  H      -0.086457     -8.120680      2.502992
  O       0.731448     -7.866312      2.952626
  H       1.446478     -8.132292      2.340582
  H      -8.151947     -8.396933     -1.136838
  O      -7.394265     -7.998242     -1.573512
  H      -7.646370     -7.039402     -1.653617
  S      -4.062166    -10.208427      2.151793
  H      -5.123304    -10.857412      2.675101
  H      -4.827272     -9.408688      1.357590
33
Coordinates from ORCA-job neb_130_449_CI_MEP.QMRegion E -2131.023509246243
  H      -2.420976     -3.637035      1.926278
  O      -2.454716     -4.558415      2.261816
  H      -1.507116     -4.825536      2.334583
  H       0.749534     -5.005678      1.929287
  O       0.208105     -5.116691      2.737775
  H       0.394892     -6.040939      2.990858
  H      -2.127078     -8.159932      0.472732
  O      -1.765534     -7.652605      1.235521
  H      -2.430396     -7.744155      1.926066
  H      -5.363409     -5.119649      1.786435
  O      -4.735200     -5.784697      1.413525
  H      -3.849922     -5.392077      1.577600
  H      -5.820345     -3.131841      1.300434
  O      -6.295897     -3.678402      1.975249
  H      -6.117875     -3.208241      2.814555
  H      -5.907314     -8.017022     -0.671589
  O      -5.077903     -8.061648     -0.138756
  H      -5.024528     -7.218530      0.357515
  H      -2.871630     -9.849892     -0.882970
  O      -2.768455     -8.903268     -1.011161
  H      -3.686975     -8.530759     -0.852056
  H      -2.073782     -2.967978      4.573302
  O      -2.936457     -3.423863      4.681128
  H      -2.919252     -4.077079      3.957597
  H      -0.071621     -8.092117      2.449470
  O       0.733832     -7.873598      2.940550
  H       1.461294     -8.134099      2.340595
  H      -8.105102     -8.402186     -1.137761
  O      -7.360295     -7.995895     -1.589261
  H      -7.624425     -7.040264     -1.663181
  S      -4.050583     -9.877192      2.486391
  H      -4.829206    -10.043185      3.574098
  H      -5.005076     -9.244125      1.763482
33
Coordinates from ORCA-job neb_130_449_CI_MEP.QMRegion E -2131.023470443263
  H      -2.428724     -3.644418      1.920026
  O      -2.465527     -4.564306      2.259052
  H      -1.519200     -4.833749      2.334856
  H       0.746538     -5.005957      1.931362
  O       0.204217     -5.118393      2.738999
  H       0.393501     -6.042314      2.991956
  H      -2.079391     -8.194331      0.443260
  O      -1.746324     -7.704194      1.231702
  H      -2.403266     -7.896775      1.913879
  H      -5.379402     -5.111569      1.783750
  O      -4.761046     -5.796061      1.427909
  H      -3.870229     -5.419920      1.598136
  H      -5.820585     -3.127171      1.299376
  O      -6.296355     -3.673386      1.974807
  H      -6.115044     -3.205112      2.814586
  H      -5.854278     -8.019993     -0.719670
  O      -5.017741     -8.051961     -0.200720
  H      -4.981872     -7.217293      0.306498
  H      -2.842140     -9.855579     -0.913147
  O      -2.729507     -8.909325     -1.032248
  H      -3.648589     -8.526925     -0.868643
  H      -2.075061     -2.972765      4.571788
  O      -2.937171     -3.429973      4.679059
  H      -2.921997     -4.076788      3.949024
  H      -0.070331     -8.065860      2.405855
  O       0.725097     -7.877019      2.927401
  H       1.462597     -8.135602      2.339051
  H      -8.077843     -8.406355     -1.112575
  O      -7.350039     -8.000103     -1.591145
  H      -7.619194     -7.046864     -1.662460
  S      -4.231409     -9.453425      2.715677
  H      -4.353152     -9.373797      4.056347
  H      -5.213173     -8.562651      2.482628
33
Coordinates from ORCA-job neb_130_449_CI_MEP.QMRegion E -2131.024110609165
  H      -2.428098     -3.627845      1.950735
  O      -2.469144     -4.546684      2.294072
  H      -1.524810     -4.824113      2.358860
  H       0.746163     -4.988795      1.945220
  O       0.208326     -5.090182      2.756860
  H       0.417970     -6.000046      3.039430
  H      -2.079963     -8.131391      0.537937
  O      -1.716380     -7.637997      1.308962
  H      -2.358298     -7.793887      2.017889
  H      -5.404594     -5.046577      1.811381
  O      -4.785461     -5.751257      1.489680
  H      -3.892203     -5.379964      1.661432
  H      -5.832395     -3.094147      1.310433
  O      -6.312571     -3.637295      1.985790
  H      -6.124172     -3.175036      2.828405
  H      -5.829270     -7.992221     -0.645264
  O      -4.989615     -8.009207     -0.131452
  H      -4.975036     -7.177911      0.380662
  H      -2.811245     -9.790067     -0.839716
  O      -2.698238     -8.846973     -0.982600
  H      -3.615647     -8.464846     -0.813968
  H      -2.069225     -2.949160      4.595516
  O      -2.932839     -3.405650      4.696494
  H      -2.908413     -4.058153      3.971582
  H      -0.050922     -8.015882      2.473461
  O       0.755739     -7.846150      2.984217
  H       1.478868     -8.112258      2.382190
  H      -8.053115     -8.386538     -1.021349
  O      -7.330828     -7.991892     -1.517545
  H      -7.607289     -7.043976     -1.618663
  S      -4.184936     -8.917671      3.169039
  H      -4.127489     -8.543929      4.464846
  H      -4.951907     -7.863370      2.818288
33
Coordinates from ORCA-job neb_130_449_CI_MEP.QMRegion E -2131.025557426957
  H      -2.434968     -3.622129      1.950112
  O      -2.485645     -4.542382      2.290705
  H      -1.543109     -4.829092      2.359368
  H       0.723309     -4.986941      1.950916
  O       0.181664     -5.095398      2.758781
  H       0.400377     -6.004729      3.039438
  H      -2.082070     -8.171349      0.588933
  O      -1.688672     -7.653015      1.324809
  H      -2.310407     -7.726517      2.069024
  H      -5.421443     -5.022354      1.811697
  O      -4.793729     -5.730395      1.505275
  H      -3.902540     -5.341176      1.656615
  H      -5.845148     -3.088786      1.310505
  O      -6.322550     -3.636412      1.984842
  H      -6.137545     -3.177557      2.829996
  H      -5.799345     -8.019335     -0.623041
  O      -4.968190     -8.047400     -0.096479
  H      -4.964210     -7.225165      0.426427
  H      -2.792779     -9.819270     -0.867173
  O      -2.676636     -8.872728     -0.981614
  H      -3.590654     -8.492411     -0.800870
  H      -2.072936     -2.971333      4.603130
  O      -2.935724     -3.431019      4.697797
  H      -2.916746     -4.061133      3.952282
  H      -0.046238     -8.024679      2.482555
  O       0.759586     -7.838300      2.989549
  H       1.483529     -8.102984      2.387980
  H      -8.010941     -8.414875     -1.058192
  O      -7.284208     -7.996862     -1.528006
  H      -7.576750     -7.053973     -1.622174
  S      -3.907767     -8.055281      3.760500
  H      -3.478775     -7.136808      4.652818
  H      -4.590082     -7.121764      3.042703
