33
Coordinates from ORCA-job neb_10_92_CI_MEP.QMRegion E -2131.010243154488
  H       4.862159     -6.295118     -2.275068
  O       5.174815     -6.629020     -3.144645
  H       5.991655     -7.122975     -2.994356
  H       8.811127     -4.986446     -3.024046
  O       8.122525     -5.451181     -2.484808
  H       8.161397     -6.390342     -2.690621
  H       6.567700     -4.095197     -0.738082
  O       7.201744     -4.470720     -0.091113
  H       7.817000     -4.934063     -0.695091
  H       6.417160     -5.913937      0.635681
  O       6.125291     -6.653330      1.219341
  H       5.228258     -6.375744      1.497940
  H       5.631873     -7.973845      0.102767
  O       5.375584     -8.716996     -0.487288
  H       4.556764     -8.398917     -0.923880
  H       7.617045     -2.493932      4.244848
  O       7.795265     -2.502901      3.288676
  H       7.241121     -3.245662      2.987579
  H       6.725355     -5.843613      2.701623
  O       6.803866     -5.143119      3.378520
  H       7.652496     -5.261326      3.850450
  H       7.996154     -2.945368      0.335280
  O       8.501193     -2.129135      0.526129
  H       8.611485     -2.121456      1.482879
  H       9.382494     -4.092243      4.167387
  O       9.128645     -4.767752      4.810403
  H       8.671904     -4.246509      5.487567
  H       6.606745     -8.581056     -1.645106
  O       7.282894     -8.346282     -2.342746
  H       7.445292     -9.160063     -2.828954
  S       9.468833     -7.677026      0.489954
  H       8.939476     -8.024445     -0.702614
  H       8.285488     -7.854794      1.110554
33
Coordinates from ORCA-job neb_10_92_CI_MEP.QMRegion E -2131.008680884564
  H       4.852683     -6.301669     -2.276174
  O       5.172976     -6.628258     -3.145436
  H       5.969064     -7.154835     -2.987336
  H       8.806771     -4.989972     -3.023192
  O       8.132209     -5.451015     -2.462783
  H       8.125062     -6.386184     -2.694249
  H       6.533304     -4.085766     -0.729335
  O       7.176359     -4.464456     -0.093228
  H       7.787184     -4.910237     -0.714580
  H       6.392514     -5.916427      0.623248
  O       6.108200     -6.662827      1.200535
  H       5.211876     -6.390256      1.486908
  H       5.608160     -7.999391      0.114677
  O       5.349300     -8.747571     -0.466563
  H       4.538513     -8.424193     -0.914416
  H       7.594701     -2.533255      4.264745
  O       7.765960     -2.524558      3.304181
  H       7.191498     -3.247345      2.991742
  H       6.690785     -5.857574      2.680328
  O       6.784057     -5.166781      3.364846
  H       7.663343     -5.275692      3.779184
  H       7.968201     -2.937176      0.330626
  O       8.483309     -2.128795      0.527403
  H       8.586969     -2.127635      1.484787
  H       9.285962     -4.012540      3.947854
  O       9.250227     -4.785444      4.531556
  H       8.941639     -4.404762      5.363440
  H       6.607874     -8.579643     -1.617863
  O       7.264790     -8.320335     -2.321199
  H       7.490982     -9.137599     -2.774363
  S       9.609090     -7.644385      1.070112
  H       9.499884     -7.441903     -0.255826
  H       8.276175     -7.789615      1.206803
33
Coordinates from ORCA-job neb_10_92_CI_MEP.QMRegion E -2131.007760805502
  H       4.851424     -6.300772     -2.278573
  O       5.170138     -6.620604     -3.150074
  H       5.951219     -7.172617     -2.998359
  H       8.827285     -5.001451     -2.995519
  O       8.158496     -5.451686     -2.420700
  H       8.134691     -6.390875     -2.638430
  H       6.511795     -4.070788     -0.696549
  O       7.178495     -4.462505     -0.095186
  H       7.761499     -4.896355     -0.755151
  H       6.380714     -5.913260      0.615450
  O       6.108366     -6.659583      1.198040
  H       5.212747     -6.393055      1.492984
  H       5.603747     -8.009158      0.122508
  O       5.341019     -8.758491     -0.454258
  H       4.531942     -8.433217     -0.903759
  H       7.599140     -2.546299      4.285649
  O       7.778095     -2.541654      3.324780
  H       7.198575     -3.260572      3.010915
  H       6.692829     -5.865662      2.676550
  O       6.795070     -5.181370      3.366540
  H       7.680626     -5.297785      3.765920
  H       7.978118     -2.938644      0.339785
  O       8.491142     -2.129958      0.540326
  H       8.590488     -2.129102      1.498193
  H       9.217472     -3.965156      3.914565
  O       9.297854     -4.787054      4.426099
  H       9.075324     -4.501202      5.319832
  H       6.598793     -8.574733     -1.623669
  O       7.223287     -8.297352     -2.347293
  H       7.534672     -9.112751     -2.749505
  S       9.621738     -7.886731      1.122635
  H       9.721631     -6.986700      0.121304
  H       8.279915     -7.762718      1.167352
33
Coordinates from ORCA-job neb_10_92_CI_MEP.QMRegion E -2131.007527114124
  H       4.846752     -6.293767     -2.278235
  O       5.161993     -6.613701     -3.150581
  H       5.945310     -7.163806     -3.003088
  H       8.832536     -5.002447     -2.969693
  O       8.160261     -5.440441     -2.391364
  H       8.161506     -6.389916     -2.562842
  H       6.508543     -4.059500     -0.671025
  O       7.183379     -4.452199     -0.080287
  H       7.757973     -4.883616     -0.752230
  H       6.387398     -5.904517      0.631797
  O       6.116737     -6.646049      1.221344
  H       5.217309     -6.383133      1.509245
  H       5.604042     -8.005750      0.148093
  O       5.332554     -8.757740     -0.419607
  H       4.530270     -8.428036     -0.877424
  H       7.598682     -2.539921      4.316120
  O       7.792803     -2.541703      3.356673
  H       7.208298     -3.255181      3.038443
  H       6.689008     -5.856065      2.686117
  O       6.802588     -5.174314      3.378352
  H       7.689224     -5.298650      3.771650
  H       7.986551     -2.932925      0.362322
  O       8.500338     -2.123949      0.561113
  H       8.595926     -2.116822      1.519195
  H       9.165700     -3.915863      3.924973
  O       9.335115     -4.773571      4.353589
  H       9.199891     -4.577422      5.287273
  H       6.597389     -8.567942     -1.613438
  O       7.196982     -8.283095     -2.351631
  H       7.567575     -9.090967     -2.716244
  S       9.603782     -7.972651      0.939523
  H       9.851138     -6.688363      0.614385
  H       8.304485     -7.712007      1.185394
33
Coordinates from ORCA-job neb_10_92_CI_MEP.QMRegion E -2131.007646830305
  H       4.849488     -6.292957     -2.276348
  O       5.162568     -6.615699     -3.148348
  H       5.955974     -7.151112     -3.000879
  H       8.824059     -5.004095     -2.976765
  O       8.138108     -5.440680     -2.414991
  H       8.190645     -6.395722     -2.536881
  H       6.523600     -4.072241     -0.684948
  O       7.189917     -4.461111     -0.081462
  H       7.773507     -4.899494     -0.741237
  H       6.393703     -5.919432      0.627289
  O       6.114032     -6.654291      1.221311
  H       5.212957     -6.385781      1.498084
  H       5.603527     -8.018740      0.148577
  O       5.324666     -8.771215     -0.414664
  H       4.526922     -8.435058     -0.875652
  H       7.587938     -2.548957      4.322605
  O       7.786467     -2.550589      3.363204
  H       7.190680     -3.251777      3.038518
  H       6.666937     -5.858601      2.677115
  O       6.789833     -5.180843      3.372951
  H       7.683097     -5.304354      3.748756
  H       7.983273     -2.939034      0.356659
  O       8.491262     -2.126354      0.558079
  H       8.590654     -2.122764      1.515399
  H       9.134141     -3.903114      3.886459
  O       9.359239     -4.778568      4.252937
  H       9.306834     -4.637851      5.204323
  H       6.585713     -8.591746     -1.619803
  O       7.193335     -8.310120     -2.351435
  H       7.525588     -9.121129     -2.744820
  S       9.586745     -7.785234      0.682814
  H       9.917279     -6.539945      1.079670
  H       8.340929     -7.673052      1.185528
33
Coordinates from ORCA-job neb_10_92_CI_MEP.QMRegion E -2131.008681279768
  H       4.848736     -6.299267     -2.278687
  O       5.163839     -6.625847     -3.148618
  H       5.965888     -7.145837     -2.995897
  H       8.811409     -5.005166     -2.992714
  O       8.113812     -5.441743     -2.446668
  H       8.194370     -6.396965     -2.541487
  H       6.536945     -4.085249     -0.714084
  O       7.182986     -4.466604     -0.083152
  H       7.787459     -4.917961     -0.712275
  H       6.388850     -5.935176      0.616644
  O       6.102114     -6.668193      1.209941
  H       5.201657     -6.393799      1.481691
  H       5.592420     -8.033426      0.144698
  O       5.312288     -8.786599     -0.417737
  H       4.517512     -8.446847     -0.881792
  H       7.574486     -2.567276      4.320536
  O       7.772731     -2.565155      3.360410
  H       7.165890     -3.253335      3.028484
  H       6.644228     -5.869452      2.660686
  O       6.773206     -5.197304      3.361654
  H       7.675716     -5.315557      3.713679
  H       7.973769     -2.946262      0.346563
  O       8.478685     -2.130901      0.548340
  H       8.587006     -2.132799      1.504252
  H       9.104117     -3.898251      3.818170
  O       9.382305     -4.784433      4.122100
  H       9.426533     -4.690073      5.079177
  H       6.576044     -8.609563     -1.608617
  O       7.210988     -8.330207     -2.318625
  H       7.500277     -9.141580     -2.744501
  S       9.584952     -7.438521      0.593300
  H       9.909398     -6.452667      1.456245
  H       8.383076     -7.624683      1.175083
33
Coordinates from ORCA-job neb_10_92_CI_MEP.QMRegion E -2131.009751768808
  H       4.855336     -6.322276     -2.275050
  O       5.177083     -6.648178     -3.143016
  H       5.976735     -7.167613     -2.980208
  H       8.809905     -5.011352     -2.988162
  O       8.111195     -5.447010     -2.444030
  H       8.183655     -6.400647     -2.554886
  H       6.536645     -4.105665     -0.742031
  O       7.150318     -4.460070     -0.064008
  H       7.801372     -4.918138     -0.634010
  H       6.380944     -5.948921      0.623918
  O       6.089817     -6.691488      1.203212
  H       5.188986     -6.414468      1.470247
  H       5.590433     -8.070564      0.161576
  O       5.304897     -8.825611     -0.396539
  H       4.519476     -8.478492     -0.870413
  H       7.545347     -2.592072      4.326384
  O       7.736895     -2.581606      3.363416
  H       7.112443     -3.249113      3.022754
  H       6.609046     -5.894528      2.653597
  O       6.746718     -5.221823      3.353273
  H       7.661051     -5.328175      3.669903
  H       7.938623     -2.944330      0.343527
  O       8.450603     -2.130782      0.539348
  H       8.571672     -2.137399      1.493014
  H       9.052380     -3.871987      3.680413
  O       9.415807     -4.762364      3.873724
  H       9.680713     -4.720496      4.797139
  H       6.593527     -8.637325     -1.562087
  O       7.246060     -8.350563     -2.252789
  H       7.562448     -9.160429     -2.662415
  S       9.706211     -6.866372      0.839094
  H       9.783985     -6.142873      1.977999
  H       8.539810     -7.431458      1.209648
