48
Coordinates from ORCA-job neb_155_316_CI_MEP.QMRegion E -2487.697204620196
  H      -4.528205      0.513118      2.163954
  O      -4.884448     -0.408388      2.166234
  H      -4.367542     -0.899985      1.514292
  H      -4.850758      2.547447      1.348164
  O      -4.188708      2.148622      1.958560
  H      -3.359972      2.149740      1.417892
  H      -5.754375      0.852434     -1.627681
  O      -4.842019      1.162210     -1.470776
  H      -4.931445      2.033448     -1.036724
  H      -3.149832      5.050587      1.140429
  O      -3.953862      5.390279      0.689393
  H      -4.354652      5.977375      1.384313
  H      -4.343991      2.753501      3.587643
  O      -4.389845      2.903958      4.556542
  H      -4.427398      2.000489      4.940008
  H      -5.082052      4.201502      0.119064
  O      -5.500070      3.328985     -0.044159
  H      -6.436844      3.441925     -0.325608
  H      -5.818589     -3.204642      1.377387
  O      -6.276997     -3.767670      2.054107
  H      -6.051928     -3.334168      2.904471
  H      -7.661051      3.820981     -2.012527
  O      -7.933879      3.249350     -1.259605
  H      -7.802203      2.339037     -1.617823
  H      -6.274952     -0.155534      1.138921
  O      -6.820454     -0.237790      0.327962
  H      -7.714540     -0.427469      0.648449
  H      -5.372036     -3.149914     -0.580039
  O      -5.168122     -2.417606      0.035284
  H      -5.819639     -1.706515     -0.143818
  H      -9.032687     -1.845802     -2.328337
  O      -8.526770     -1.593374     -1.524668
  H      -8.553625     -2.349458     -0.893547
  H      -7.845226     -3.760651      0.937291
  O      -8.547259     -3.687258      0.260955
  H      -8.422178     -4.455069     -0.334407
  H      -7.881595      0.047890     -1.953487
  O      -7.398128      0.781201     -2.378094
  H      -7.642222      0.754524     -3.329724
  H      -5.666584      3.841750      5.377951
  O      -6.342543      4.195335      5.994235
  H      -6.070285      5.099470      6.174823
  H     -10.509930      4.066296     -2.870949
  O     -10.621643      3.341421     -2.232206
  H      -9.768842      3.328642     -1.760670
  S      -9.869564     -0.847526      1.716214
  H     -10.379928     -0.466979      0.528506
  H      -9.751899     -2.131837      1.315884
48
Coordinates from ORCA-job neb_155_316_CI_MEP.QMRegion E -2487.693135820889
  H      -4.518903      0.419703      2.137158
  O      -4.896955     -0.493421      2.137018
  H      -4.378611     -1.016032      1.510613
  H      -4.847513      2.449131      1.352634
  O      -4.182873      2.047574      1.957968
  H      -3.353247      2.074297      1.418120
  H      -5.731829      0.803094     -1.614092
  O      -4.826925      1.140493     -1.479900
  H      -4.926802      2.003613     -1.032212
  H      -3.147796      5.030190      1.139493
  O      -3.953896      5.367619      0.689526
  H      -4.352554      5.954671      1.384840
  H      -4.323075      2.689149      3.565944
  O      -4.379663      2.865255      4.530705
  H      -4.414473      1.969255      4.933327
  H      -5.070442      4.145742      0.141855
  O      -5.483091      3.269918     -0.017195
  H      -6.414942      3.372694     -0.317330
  H      -5.868008     -3.240017      1.379968
  O      -6.310617     -3.799102      2.067925
  H      -6.064953     -3.359279      2.908502
  H      -7.624405      3.771296     -2.017727
  O      -7.888696      3.172534     -1.283017
  H      -7.768771      2.271947     -1.677375
  H      -6.225158     -0.215835      1.069604
  O      -6.735281     -0.265703      0.231828
  H      -7.651791     -0.370463      0.511656
  H      -5.343396     -3.218749     -0.560818
  O      -5.154287     -2.468544      0.040503
  H      -5.785623     -1.756274     -0.193140
  H      -9.050809     -1.846519     -2.312947
  O      -8.534283     -1.604113     -1.514490
  H      -8.600778     -2.353577     -0.872352
  H      -7.973105     -3.760471      0.926780
  O      -8.649364     -3.692962      0.228730
  H      -8.473175     -4.448344     -0.369381
  H      -7.883431      0.001625     -1.986882
  O      -7.388758      0.733895     -2.403039
  H      -7.633088      0.719329     -3.355311
  H      -5.663173      3.759867      5.349354
  O      -6.339594      4.127209      5.958878
  H      -6.071336      5.038081      6.107438
  H     -10.467917      4.062690     -2.863651
  O     -10.574343      3.338349     -2.223233
  H      -9.706417      3.301640     -1.780156
  S      -9.445189      0.426347      2.078493
  H     -10.069462      1.003365      1.032360
  H     -10.219130     -0.676613      2.030580
48
Coordinates from ORCA-job neb_155_316_CI_MEP.QMRegion E -2487.691905384162
  H      -4.531318      0.433685      2.147414
  O      -4.907886     -0.479813      2.143704
  H      -4.385084     -0.997852      1.516692
  H      -4.845459      2.463253      1.358998
  O      -4.182121      2.060368      1.964544
  H      -3.353040      2.081597      1.424092
  H      -5.735194      0.815842     -1.614219
  O      -4.828374      1.147360     -1.477554
  H      -4.924202      2.011531     -1.031328
  H      -3.145162      5.033977      1.141740
  O      -3.951231      5.371577      0.691543
  H      -4.350459      5.958475      1.386996
  H      -4.326957      2.700604      3.575689
  O      -4.381773      2.873361      4.540799
  H      -4.417845      1.975965      4.940030
  H      -5.064289      4.155471      0.147732
  O      -5.480744      3.281203     -0.013540
  H      -6.412094      3.388953     -0.311522
  H      -5.866080     -3.238162      1.382850
  O      -6.309060     -3.797693      2.069707
  H      -6.064397     -3.358213      2.910775
  H      -7.628406      3.786306     -2.008255
  O      -7.893731      3.188526     -1.272892
  H      -7.774794      2.288269     -1.668597
  H      -6.246984     -0.215787      1.078443
  O      -6.742237     -0.269750      0.232320
  H      -7.660217     -0.398327      0.491003
  H      -5.341860     -3.216690     -0.557986
  O      -5.149990     -2.466140      0.042172
  H      -5.778865     -1.752960     -0.193363
  H      -9.048548     -1.835725     -2.313246
  O      -8.528037     -1.596299     -1.516553
  H      -8.599578     -2.345812     -0.874005
  H      -7.975467     -3.751521      0.926875
  O      -8.643329     -3.682541      0.221434
  H      -8.466349     -4.440851     -0.372470
  H      -7.885679      0.015687     -1.983846
  O      -7.394184      0.751693     -2.397497
  H      -7.634267      0.733644     -3.350804
  H      -5.666013      3.777226      5.358898
  O      -6.340151      4.144013      5.970714
  H      -6.065153      5.051332      6.129302
  H     -10.470130      4.071865     -2.869604
  O     -10.577930      3.351383     -2.224668
  H      -9.710470      3.316380     -1.781479
  S      -9.152655      0.889329      2.235180
  H      -9.708234      1.571530      1.214030
  H     -10.259170      0.149248      2.448418
48
Coordinates from ORCA-job neb_155_316_CI_MEP.QMRegion E -2487.691769685130
  H      -4.555840      0.448312      2.159587
  O      -4.929993     -0.466248      2.152970
  H      -4.409401     -0.976591      1.518044
  H      -4.852806      2.476075      1.369521
  O      -4.189095      2.072585      1.973827
  H      -3.360831      2.089901      1.433258
  H      -5.756969      0.827686     -1.624547
  O      -4.847280      1.146902     -1.474522
  H      -4.939546      2.010947     -1.027589
  H      -3.149354      5.036518      1.144543
  O      -3.954954      5.374310      0.693637
  H      -4.353991      5.962086      1.388908
  H      -4.341786      2.717343      3.592914
  O      -4.389639      2.885441      4.558369
  H      -4.427658      1.985672      4.952185
  H      -5.070860      4.162121      0.156435
  O      -5.493399      3.290304     -0.004879
  H      -6.424011      3.406530     -0.299768
  H      -5.878415     -3.234652      1.389364
  O      -6.315988     -3.797455      2.075722
  H      -6.071449     -3.357252      2.916667
  H      -7.645378      3.807802     -1.996877
  O      -7.915281      3.215344     -1.258784
  H      -7.801965      2.313595     -1.651508
  H      -6.303767     -0.222128      1.118693
  O      -6.796839     -0.261557      0.270510
  H      -7.709202     -0.443974      0.512401
  H      -5.355157     -3.204039     -0.556598
  O      -5.163799     -2.453428      0.043244
  H      -5.795991     -1.743698     -0.189283
  H      -9.050483     -1.830918     -2.312921
  O      -8.527234     -1.595563     -1.516783
  H      -8.608068     -2.343592     -0.873684
  H      -7.993136     -3.750329      0.935069
  O      -8.653137     -3.679408      0.222703
  H      -8.472574     -4.438103     -0.369227
  H      -7.905887      0.031987     -1.968693
  O      -7.417717      0.770801     -2.381896
  H      -7.649367      0.745887     -3.337015
  H      -5.681699      3.799210      5.372045
  O      -6.353505      4.164288      5.986886
  H      -6.071528      5.067328      6.157579
  H     -10.486886      4.082389     -2.876343
  O     -10.601923      3.366122     -2.227804
  H      -9.740540      3.336134     -1.773919
  S      -8.921484      1.201409      2.346014
  H      -9.233464      2.011128      1.314679
  H     -10.208930      1.043737      2.717217
48
Coordinates from ORCA-job neb_155_316_CI_MEP.QMRegion E -2487.691760831569
  H      -4.573556      0.443606      2.158337
  O      -4.940442     -0.474591      2.148381
  H      -4.409526     -0.979430      1.517815
  H      -4.857641      2.467846      1.372934
  O      -4.193965      2.061431      1.974769
  H      -3.365711      2.081621      1.434501
  H      -5.762427      0.824329     -1.634567
  O      -4.852296      1.138243     -1.476003
  H      -4.940636      2.003671     -1.029830
  H      -3.145583      5.036335      1.146513
  O      -3.951543      5.372906      0.694846
  H      -4.352714      5.959410      1.389946
  H      -4.348381      2.714018      3.594116
  O      -4.388736      2.883136      4.559559
  H      -4.426491      1.983107      4.953055
  H      -5.051521      4.157586      0.153361
  O      -5.475662      3.287719     -0.016992
  H      -6.408131      3.408749     -0.300110
  H      -5.870734     -3.231584      1.388049
  O      -6.310846     -3.793315      2.073021
  H      -6.067677     -3.354300      2.915287
  H      -7.642474      3.804805     -1.995104
  O      -7.910071      3.209924     -1.258008
  H      -7.798153      2.309624     -1.653366
  H      -6.327061     -0.257967      1.130677
  O      -6.819640     -0.276940      0.280429
  H      -7.711300     -0.561774      0.495736
  H      -5.347779     -3.209199     -0.558989
  O      -5.153469     -2.455742      0.037015
  H      -5.774602     -1.741515     -0.207390
  H      -9.052002     -1.838648     -2.311565
  O      -8.528080     -1.611558     -1.513405
  H      -8.608226     -2.366761     -0.878235
  H      -7.982839     -3.760682      0.939536
  O      -8.644614     -3.688721      0.228607
  H      -8.467285     -4.447833     -0.363852
  H      -7.909682      0.027584     -1.967587
  O      -7.417428      0.762060     -2.382291
  H      -7.649663      0.738562     -3.337525
  H      -5.686462      3.784338      5.367010
  O      -6.358126      4.152906      5.980859
  H      -6.075356      5.056831      6.145555
  H     -10.480906      4.081652     -2.877164
  O     -10.599846      3.365383     -2.229333
  H      -9.740712      3.332385     -1.772092
  S      -8.577354      1.443197      2.370486
  H      -8.833588      2.114017      1.230874
  H      -9.694917      1.892557      2.981095
48
Coordinates from ORCA-job neb_155_316_CI_MEP.QMRegion E -2487.692570146502
  H      -4.577571      0.467812      2.151287
  O      -4.927657     -0.457428      2.141657
  H      -4.385272     -0.948438      1.510159
  H      -4.854410      2.496427      1.358131
  O      -4.194097      2.086388      1.960151
  H      -3.364930      2.099777      1.420033
  H      -5.744960      0.851607     -1.636652
  O      -4.830198      1.152033     -1.480029
  H      -4.903445      2.027679     -1.049689
  H      -3.128085      5.050347      1.149286
  O      -3.933696      5.387111      0.696410
  H      -4.341371      5.969264      1.391291
  H      -4.345674      2.721508      3.578950
  O      -4.382258      2.884722      4.546343
  H      -4.419862      1.983861      4.936899
  H      -4.999942      4.189169      0.123405
  O      -5.422126      3.323146     -0.073576
  H      -6.359472      3.446939     -0.332804
  H      -5.840819     -3.210413      1.367895
  O      -6.290271     -3.769893      2.048941
  H      -6.053867     -3.334660      2.895017
  H      -7.630948      3.825891     -1.995593
  O      -7.891948      3.228923     -1.257216
  H      -7.776229      2.330949     -1.656840
  H      -6.304926     -0.239852      1.112980
  O      -6.794559     -0.248021      0.260273
  H      -7.680832     -0.558348      0.459400
  H      -5.340313     -3.196068     -0.579638
  O      -5.136446     -2.442323      0.012540
  H      -5.742661     -1.718647     -0.239243
  H      -9.039859     -1.806472     -2.325544
  O      -8.515975     -1.578373     -1.526638
  H      -8.590991     -2.337543     -0.894682
  H      -7.941545     -3.724745      0.913923
  O      -8.608054     -3.650862      0.207124
  H      -8.445730     -4.417779     -0.379589
  H      -7.880921      0.056316     -1.979856
  O      -7.389999      0.791077     -2.394715
  H      -7.625735      0.764837     -3.349260
  H      -5.668335      3.781976      5.354260
  O      -6.344156      4.150112      5.965106
  H      -6.069525      5.058263      6.120448
  H     -10.459683      4.091949     -2.889437
  O     -10.579636      3.380814     -2.235763
  H      -9.720040      3.347539     -1.779837
  S      -8.176965      1.791593      2.342311
  H      -8.495218      2.321859      1.146351
  H      -9.014546      2.607767      3.016590
48
Coordinates from ORCA-job neb_155_316_CI_MEP.QMRegion E -2487.693988570060
  H      -4.591805      0.498648      2.145474
  O      -4.926306     -0.432428      2.145352
  H      -4.383974     -0.911824      1.505058
  H      -4.875075      2.518374      1.349012
  O      -4.200879      2.119434      1.937906
  H      -3.376289      2.129558      1.389257
  H      -5.753469      0.836763     -1.646655
  O      -4.838269      1.134371     -1.487738
  H      -4.906831      2.020559     -1.077204
  H      -3.135793      5.054718      1.148236
  O      -3.939186      5.393651      0.693766
  H      -4.349788      5.974651      1.387080
  H      -4.359666      2.733005      3.567409
  O      -4.387144      2.885321      4.537287
  H      -4.423982      1.981288      4.920721
  H      -4.983245      4.213769      0.052889
  O      -5.398274      3.354574     -0.180260
  H      -6.340383      3.477250     -0.413905
  H      -5.806206     -3.199900      1.360953
  O      -6.260593     -3.757833      2.040786
  H      -6.029157     -3.325117      2.889881
  H      -7.662556      3.807304     -2.021503
  O      -7.925847      3.223541     -1.273457
  H      -7.791804      2.316984     -1.645343
  H      -6.332314     -0.230518      1.131105
  O      -6.817988     -0.233139      0.276832
  H      -7.692342     -0.587787      0.452168
  H      -5.338591     -3.183231     -0.588117
  O      -5.128558     -2.429329      0.001832
  H      -5.736595     -1.705963     -0.244274
  H      -9.036994     -1.836262     -2.312805
  O      -8.511517     -1.609900     -1.514896
  H      -8.567539     -2.375538     -0.888185
  H      -7.876703     -3.742146      0.923695
  O      -8.558620     -3.669535      0.230393
  H      -8.411988     -4.437447     -0.358898
  H      -7.890251      0.037477     -1.986452
  O      -7.400285      0.773670     -2.398068
  H      -7.633864      0.750468     -3.353579
  H      -5.667976      3.760976      5.342021
  O      -6.372535      4.118664      5.928409
  H      -6.132838      5.038671      6.071488
  H     -10.498880      4.066677     -2.885043
  O     -10.623916      3.346744     -2.242635
  H      -9.767402      3.306359     -1.781646
  S      -7.701138      2.359088      2.475720
  H      -8.097370      2.741159      1.246003
  H      -7.868589      3.587971      3.007125
