24
Coordinates from ORCA-job neb_107_369_CI_MEP.QMRegion E -1917.029497145918
  H       4.202488      5.511131      0.367623
  O       4.599959      5.638611      1.251527
  H       3.879360      6.074593      1.746926
  H       4.344200      4.917207      6.147382
  O       4.366059      5.565494      5.433462
  H       3.709073      5.216091      4.775720
  H       0.587501      7.160949      7.694720
  O      -0.331312      7.213803      8.002119
  H      -0.845371      7.159564      7.157848
  H       2.743050      6.537269      6.142038
  O       1.785908      6.560896      6.302473
  H       1.520607      5.615613      6.229331
  H       4.861252      8.482304      0.070446
  O       5.240262      8.435564      0.972276
  H       5.439306      7.488388      1.064834
  H       0.251005      8.700736      4.250610
  O       0.934176      8.057712      4.014831
  H       1.128296      7.527979      4.811242
  H       3.583494      8.200932      1.879440
  O       2.783384      7.664296      2.025045
  H       2.316861      8.004460      2.810998
  S       5.080610      9.480782      4.372901
  H       5.245818      8.162707      4.608568
  H       5.429838      9.352487      3.074117
24
Coordinates from ORCA-job neb_107_369_CI_MEP.QMRegion E -1917.027722690777
  H       4.252481      5.498194      0.328671
  O       4.656449      5.624223      1.209438
  H       3.943918      6.074068      1.702046
  H       4.369440      4.911731      6.101338
  O       4.393008      5.558424      5.386013
  H       3.730499      5.209803      4.731299
  H       0.621238      7.113993      7.660819
  O      -0.293318      7.181616      7.978770
  H      -0.815598      7.137682      7.137616
  H       2.764668      6.528242      6.083426
  O       1.806371      6.542523      6.236934
  H       1.547085      5.594458      6.175959
  H       4.857317      8.510009      0.056405
  O       5.218317      8.503735      0.967617
  H       5.519624      7.585859      1.060358
  H       0.285954      8.697514      4.218367
  O       0.968477      8.057218      3.975217
  H       1.165860      7.524096      4.769907
  H       3.627008      8.177714      1.803223
  O       2.825875      7.645992      1.985532
  H       2.363838      7.992243      2.770585
  S       4.781334      9.438300      4.976199
  H       5.050623      8.139143      4.736202
  H       4.573858      9.693696      3.668036
24
Coordinates from ORCA-job neb_107_369_CI_MEP.QMRegion E -1917.027144832514
  H       4.248473      5.501003      0.331529
  O       4.652402      5.625814      1.212371
  H       3.940856      6.076150      1.705352
  H       4.360649      4.917649      6.104592
  O       4.386958      5.561130      5.386612
  H       3.724481      5.211394      4.732679
  H       0.612791      7.116309      7.662060
  O      -0.301458      7.183356      7.981159
  H      -0.824093      7.138263      7.140508
  H       2.752146      6.538213      6.087843
  O       1.792884      6.545874      6.235076
  H       1.539257      5.596234      6.173863
  H       4.840573      8.517601      0.058613
  O       5.196024      8.521030      0.972024
  H       5.516984      7.610720      1.068488
  H       0.274459      8.699623      4.220141
  O       0.964862      8.066381      3.979653
  H       1.157393      7.528540      4.772954
  H       3.620690      8.184472      1.806642
  O       2.820365      7.649722      1.989907
  H       2.350184      7.994258      2.770522
  S       4.727553      9.428375      5.109267
  H       4.974800      8.151068      4.755841
  H       4.241607      9.731158      3.887916
24
Coordinates from ORCA-job neb_107_369_CI_MEP.QMRegion E -1917.027187066338
  H       4.247758      5.504967      0.331517
  O       4.648741      5.631407      1.212905
  H       3.936615      6.085315      1.701851
  H       4.344174      4.907938      6.099170
  O       4.381953      5.553412      5.384786
  H       3.721434      5.210191      4.724941
  H       0.609156      7.100556      7.648772
  O      -0.301177      7.176936      7.977854
  H      -0.830434      7.134421      7.141259
  H       2.730088      6.542614      6.073094
  O       1.769627      6.539953      6.210033
  H       1.525275      5.587175      6.153820
  H       4.807801      8.546474      0.058124
  O       5.159757      8.574068      0.973388
  H       5.518420      7.680877      1.079573
  H       0.255396      8.693553      4.215303
  O       0.954844      8.069536      3.975203
  H       1.141671      7.520291      4.762970
  H       3.604645      8.204612      1.812964
  O       2.812006      7.656120      1.993592
  H       2.328177      7.995790      2.767390
  S       4.590214      9.346480      5.265203
  H       4.886772      8.132153      4.760712
  H       3.936836      9.716466      4.144877
24
Coordinates from ORCA-job neb_107_369_CI_MEP.QMRegion E -1917.027113121732
  H       4.253617      5.504139      0.329523
  O       4.656181      5.629048      1.210534
  H       3.948319      6.088857      1.699043
  H       4.350552      4.914218      6.097658
  O       4.383481      5.557291      5.379687
  H       3.723496      5.208699      4.722627
  H       0.613936      7.100811      7.648419
  O      -0.296579      7.177265      7.976873
  H      -0.826040      7.134624      7.140645
  H       2.737278      6.538574      6.075693
  O       1.775131      6.540609      6.203980
  H       1.528239      5.588309      6.149687
  H       4.810495      8.547628      0.053381
  O       5.163160      8.581161      0.967490
  H       5.530044      7.691289      1.076980
  H       0.254332      8.696293      4.216969
  O       0.967311      8.085732      3.981561
  H       1.144561      7.524572      4.763974
  H       3.612004      8.211707      1.809206
  O       2.821562      7.658597      1.988427
  H       2.333999      7.999276      2.758499
  S       4.558918      9.379188      5.296501
  H       4.777881      8.153267      4.780295
  H       3.554145      9.625120      4.430824
24
Coordinates from ORCA-job neb_107_369_CI_MEP.QMRegion E -1917.027227031695
  H       4.235344      5.510649      0.343483
  O       4.641416      5.628919      1.223997
  H       3.935654      6.083149      1.720807
  H       4.347421      4.960562      6.117297
  O       4.371292      5.589091      5.386258
  H       3.714412      5.222431      4.736292
  H       0.595723      7.147616      7.677050
  O      -0.320855      7.202255      7.990435
  H      -0.838608      7.148164      7.148172
  H       2.733419      6.552783      6.102541
  O       1.773161      6.560430      6.245670
  H       1.522148      5.610013      6.183469
  H       4.831985      8.523255      0.052572
  O       5.181873      8.532137      0.967490
  H       5.509641      7.625567      1.069530
  H       0.235160      8.710985      4.235295
  O       0.964434      8.113678      4.012519
  H       1.128223      7.548216      4.794171
  H       3.614183      8.207433      1.816085
  O       2.815371      7.665104      1.994048
  H       2.335933      8.017237      2.762149
  S       4.455144      9.529368      5.178115
  H       4.678047      8.239837      4.854185
  H       3.228973      9.515610      4.621216
24
Coordinates from ORCA-job neb_107_369_CI_MEP.QMRegion E -1917.027915439540
  H       4.230052      5.504929      0.346689
  O       4.639036      5.627120      1.225259
  H       3.936660      6.085344      1.722794
  H       4.348112      4.982630      6.116071
  O       4.370595      5.604259      5.379124
  H       3.713862      5.230518      4.733205
  H       0.601605      7.156208      7.679470
  O      -0.314172      7.212580      7.995087
  H      -0.834028      7.160536      7.155085
  H       2.728576      6.562795      6.095060
  O       1.768405      6.566918      6.240789
  H       1.520241      5.615757      6.181335
  H       4.818911      8.526338      0.044309
  O       5.173955      8.549669      0.957619
  H       5.518141      7.650538      1.066524
  H       0.223666      8.716025      4.245745
  O       0.959512      8.127036      4.020632
  H       1.115140      7.541883      4.789901
  H       3.618695      8.215920      1.808193
  O       2.819408      7.676540      1.995542
  H       2.349620      8.042628      2.761832
  S       4.170113      9.529891      5.279046
  H       4.527135      8.286858      4.896162
  H       2.897854      9.348543      4.862408
