21
Coordinates from ORCA-job neb_45_207_CI_MEP.QMRegion E -1845.693258757967
  H      -0.776769      8.794970     -2.240814
  O      -0.643525      9.656065     -1.773075
  H       0.061042      9.476368     -1.123555
  H       1.723517      8.332693      0.707526
  O       1.384708      8.624538     -0.171238
  H       2.178873      8.637572     -0.733169
  H       3.636267      7.084866     -1.241227
  O       3.841243      8.025494     -1.455442
  H       4.222257      7.936779     -2.347367
  H       4.878566      8.395875      0.033454
  O       5.215048      8.401725      0.954058
  H       5.459237      7.472651      1.103796
  H       0.308606      8.644988      4.312910
  O       0.973619      7.981888      4.084658
  H       1.176397      7.491172      4.909988
  H       3.579130      8.203830      1.894381
  O       2.763167      7.681922      1.997418
  H       2.354453      7.889439      2.857338
  S       7.081168     11.287709      1.250509
  H       7.298009     11.250493     -0.079889
  H       6.459804     10.084611      1.235073
21
Coordinates from ORCA-job neb_45_207_CI_MEP.QMRegion E -1845.693067325656
  H      -0.753422      8.783098     -2.247877
  O      -0.620751      9.641224     -1.774722
  H       0.093090      9.459404     -1.135953
  H       1.772100      8.319771      0.696187
  O       1.433252      8.612567     -0.182577
  H       2.227645      8.614604     -0.744823
  H       3.674458      7.067112     -1.243287
  O       3.891091      8.006553     -1.452751
  H       4.260672      7.917981     -2.350194
  H       4.931481      8.345311      0.039537
  O       5.252647      8.371497      0.965494
  H       5.524622      7.454364      1.132540
  H       0.342203      8.641856      4.302392
  O       1.000225      7.972372      4.074509
  H       1.200290      7.483427      4.901903
  H       3.610318      8.183335      1.885560
  O       2.789508      7.668817      1.991810
  H       2.379418      7.881382      2.849732
  S       6.215475     11.621559      1.334841
  H       6.270703     11.508552     -0.008050
  H       6.046879     10.286460      1.473092
21
Coordinates from ORCA-job neb_45_207_CI_MEP.QMRegion E -1845.693013940862
  H      -0.759772      8.779326     -2.250162
  O      -0.624973      9.635661     -1.773723
  H       0.094187      9.451817     -1.141747
  H       1.780900      8.320719      0.688742
  O       1.442412      8.607411     -0.192066
  H       2.237338      8.604152     -0.753652
  H       3.683314      7.062163     -1.232043
  O       3.913697      7.998707     -1.440184
  H       4.280432      7.904886     -2.338556
  H       4.959600      8.339424      0.054049
  O       5.286580      8.369476      0.977327
  H       5.532936      7.446906      1.153941
  H       0.338064      8.643546      4.295073
  O       0.996762      7.973924      4.068989
  H       1.193897      7.485152      4.896786
  H       3.618692      8.186434      1.886291
  O       2.796957      7.672813      1.987728
  H       2.385408      7.885138      2.844987
  S       5.609898     11.747526      1.413745
  H       5.503071     11.634427      0.073732
  H       5.764130     10.412326      1.549083
21
Coordinates from ORCA-job neb_45_207_CI_MEP.QMRegion E -1845.693076719553
  H      -0.758331      8.777534     -2.252212
  O      -0.621264      9.633568     -1.775633
  H       0.097502      9.446802     -1.143987
  H       1.785474      8.323712      0.685160
  O       1.447980      8.607810     -0.196922
  H       2.243141      8.598458     -0.758168
  H       3.693613      7.060901     -1.223017
  O       3.926067      7.996552     -1.432690
  H       4.293246      7.900021     -2.330694
  H       4.976543      8.342318      0.064112
  O       5.301158      8.379710      0.987211
  H       5.541906      7.457704      1.172196
  H       0.334009      8.644721      4.290801
  O       0.994124      7.976005      4.065579
  H       1.191616      7.488073      4.893524
  H       3.621196      8.196759      1.888680
  O       2.802317      7.678166      1.986645
  H       2.386190      7.890828      2.841659
  S       5.057081     11.781285      1.491573
  H       4.752877     11.624492      0.187499
  H       5.492491     10.507870      1.574366
21
Coordinates from ORCA-job neb_45_207_CI_MEP.QMRegion E -1845.693035764025
  H      -0.781929      8.772900     -2.245184
  O      -0.634873      9.630946     -1.773522
  H       0.077340      9.439125     -1.136100
  H       1.769716      8.319135      0.690499
  O       1.434034      8.602916     -0.192898
  H       2.229011      8.589043     -0.754891
  H       3.680199      7.055746     -1.214805
  O       3.906815      7.993057     -1.425703
  H       4.272645      7.897604     -2.324275
  H       4.958707      8.337027      0.074029
  O       5.279635      8.393915      0.997660
  H       5.536804      7.479560      1.196614
  H       0.313591      8.643651      4.294777
  O       0.971832      7.972894      4.069553
  H       1.170938      7.484413      4.896532
  H       3.595811      8.196424      1.893083
  O       2.780239      7.673344      1.992684
  H       2.361251      7.892677      2.844891
  S       4.600444     11.766807      1.552127
  H       4.140949     11.536701      0.304462
  H       5.239437     10.578735      1.583377
21
Coordinates from ORCA-job neb_45_207_CI_MEP.QMRegion E -1845.693133453664
  H      -0.800697      8.767098     -2.242853
  O      -0.647548      9.623740     -1.768944
  H       0.066584      9.428467     -1.135394
  H       1.777665      8.306324      0.690306
  O       1.443269      8.601752     -0.191378
  H       2.234910      8.567127     -0.758095
  H       3.685443      7.045659     -1.205954
  O       3.910343      7.984320     -1.414630
  H       4.270445      7.893015     -2.315693
  H       4.956617      8.352108      0.084731
  O       5.259307      8.423855      1.013131
  H       5.542725      7.519648      1.219813
  H       0.312312      8.641057      4.293890
  O       0.964260      7.964392      4.068552
  H       1.162787      7.476263      4.895876
  H       3.588808      8.192409      1.895550
  O       2.772157      7.670087      1.993740
  H       2.350374      7.893591      2.843737
  S       4.023512     11.704709      1.602830
  H       3.398749     11.289651      0.480594
  H       4.876636     10.660281      1.563418
21
Coordinates from ORCA-job neb_45_207_CI_MEP.QMRegion E -1845.693706648191
  H      -0.769843      8.765171     -2.248365
  O      -0.623292      9.617913     -1.766604
  H       0.105645      9.427931     -1.150274
  H       1.838611      8.288925      0.680372
  O       1.510689      8.613526     -0.196351
  H       2.300158      8.561443     -0.766976
  H       3.744868      7.046154     -1.195456
  O       3.975588      7.983255     -1.400506
  H       4.328464      7.896062     -2.305238
  H       4.991519      8.428674      0.102655
  O       5.276934      8.512851      1.035098
  H       5.588753      7.619846      1.243440
  H       0.369436      8.647535      4.284299
  O       1.009323      7.961056      4.056453
  H       1.206003      7.475496      4.886337
  H       3.631221      8.210628      1.889236
  O       2.815241      7.684307      1.985483
  H       2.389763      7.908261      2.834006
  S       3.098688     11.497343      1.583408
  H       2.419923     10.658742      0.768563
  H       4.220489     10.755414      1.488640
