39
Coordinates from ORCA-job neb_154_317_CI_MEP.QMRegion E -2273.698643188802
  H      -4.578540      0.613607      2.210786
  O      -4.887946     -0.329250      2.227016
  H      -4.369891     -0.780946      1.547028
  H      -4.950570      4.162330      0.077791
  O      -5.412275      3.308535     -0.050858
  H      -6.348880      3.441936     -0.289273
  H      -4.344389     -2.651776      4.332309
  O      -5.228646     -2.303596      4.087391
  H      -5.036784     -1.492142      3.570791
  H      -5.907739     -3.241927      1.382219
  O      -6.355210     -3.819590      2.049534
  H      -6.093033     -3.403493      2.894882
  H      -7.627391      3.847066     -1.967020
  O      -7.903282      3.251807     -1.233464
  H      -7.763813      2.350667     -1.630421
  H      -6.258381     -0.060003      1.133519
  O      -6.713085     -0.121936      0.272946
  H      -7.654059      0.010244      0.455472
  H      -5.386405     -3.144953     -0.553060
  O      -5.196139     -2.416480      0.071505
  H      -5.820719     -1.694212     -0.143404
  H      -9.030076     -1.775850     -2.311116
  O      -8.511801     -1.530521     -1.514210
  H      -8.601763     -2.271286     -0.863983
  H      -8.006026     -3.705250      0.932609
  O      -8.656775     -3.632951      0.210816
  H      -8.481844     -4.402020     -0.366258
  H      -7.804978      0.077904     -1.958847
  O      -7.381103      0.850954     -2.377452
  H      -7.611161      0.809240     -3.330380
  H     -10.021586      3.059928     -4.901352
  O     -10.235875      2.146536     -4.660310
  H     -10.385558      2.241361     -3.698541
  H     -10.513980      4.095129     -2.783737
  O     -10.563921      3.363742     -2.147765
  H      -9.677575      3.374495     -1.732260
  S      -9.822912      1.067710      1.008185
  H      -9.466796      2.291344      0.565297
  H     -10.385464      0.739895     -0.171451
39
Coordinates from ORCA-job neb_154_317_CI_MEP.QMRegion E -2273.696567214132
  H      -4.565213      0.625205      2.180191
  O      -4.865528     -0.322136      2.167994
  H      -4.322442     -0.755323      1.495591
  H      -4.951521      4.162673      0.075096
  O      -5.416338      3.310818     -0.051544
  H      -6.352868      3.453522     -0.292868
  H      -4.344552     -2.624251      4.300994
  O      -5.226588     -2.270923      4.058021
  H      -5.030289     -1.464688      3.534794
  H      -5.882497     -3.213962      1.312415
  O      -6.340398     -3.776361      1.987343
  H      -6.083121     -3.347828      2.827966
  H      -7.639734      3.891433     -1.951335
  O      -7.912873      3.303984     -1.212018
  H      -7.777785      2.405280     -1.610563
  H      -6.180324     -0.035300      1.050386
  O      -6.670193     -0.103037      0.207792
  H      -7.601465     -0.095531      0.465106
  H      -5.382229     -3.108907     -0.616074
  O      -5.178167     -2.390518      0.013599
  H      -5.787363     -1.649890     -0.193629
  H      -9.024701     -1.724543     -2.337379
  O      -8.508563     -1.481768     -1.536554
  H      -8.591414     -2.231683     -0.896835
  H      -7.982427     -3.663775      0.870573
  O      -8.652397     -3.590581      0.165588
  H      -8.489859     -4.361674     -0.414133
  H      -7.800955      0.139859     -1.977661
  O      -7.374105      0.910880     -2.393532
  H      -7.604076      0.865463     -3.345995
  H      -9.987491      3.096509     -4.926120
  O     -10.214704      2.187148     -4.681142
  H     -10.376757      2.291641     -3.722393
  H     -10.504651      4.142754     -2.805115
  O     -10.582892      3.421133     -2.160346
  H      -9.713207      3.430958     -1.712157
  S      -9.611778      0.392100      1.775689
  H     -10.011895      1.363409      0.927815
  H     -10.260863     -0.576178      1.096716
39
Coordinates from ORCA-job neb_154_317_CI_MEP.QMRegion E -2273.696348699380
  H      -4.562150      0.622557      2.187784
  O      -4.859945     -0.325724      2.176226
  H      -4.312310     -0.758899      1.507530
  H      -4.948598      4.156622      0.080898
  O      -5.413389      3.305009     -0.046418
  H      -6.351163      3.447814     -0.284474
  H      -4.344994     -2.633623      4.306697
  O      -5.226517     -2.279059      4.062269
  H      -5.027867     -1.472091      3.541060
  H      -5.878237     -3.219097      1.318689
  O      -6.340155     -3.780079      1.993041
  H      -6.081314     -3.353727      2.834495
  H      -7.634864      3.890529     -1.942555
  O      -7.905224      3.306662     -1.199925
  H      -7.776027      2.406757     -1.595890
  H      -6.167465     -0.043044      1.051663
  O      -6.661287     -0.116708      0.211548
  H      -7.589219     -0.137868      0.478724
  H      -5.377153     -3.118829     -0.608527
  O      -5.172317     -2.401673      0.022854
  H      -5.777690     -1.657662     -0.185172
  H      -9.023112     -1.729104     -2.333831
  O      -8.506540     -1.487655     -1.532842
  H      -8.592941     -2.234562     -0.891978
  H      -7.967684     -3.674036      0.881229
  O      -8.647200     -3.597016      0.185233
  H      -8.492051     -4.365750     -0.399700
  H      -7.800739      0.138959     -1.970310
  O      -7.373088      0.908737     -2.386951
  H      -7.603459      0.863849     -3.339051
  H      -9.986418      3.094479     -4.909314
  O     -10.211159      2.184139     -4.665634
  H     -10.368869      2.286019     -3.705851
  H     -10.496484      4.139235     -2.790895
  O     -10.579260      3.417478     -2.147335
  H      -9.714952      3.428640     -1.689175
  S      -9.538130      0.183065      1.940747
  H     -10.247214      0.790226      0.968529
  H      -9.987532     -1.044182      1.607863
39
Coordinates from ORCA-job neb_154_317_CI_MEP.QMRegion E -2273.696559637321
  H      -4.559162      0.627165      2.192640
  O      -4.855891     -0.322154      2.187453
  H      -4.304448     -0.760047      1.524652
  H      -4.946490      4.159975      0.080784
  O      -5.408206      3.306529     -0.046152
  H      -6.347967      3.443894     -0.282457
  H      -4.346263     -2.641779      4.314762
  O      -5.226580     -2.286815      4.066837
  H      -5.024972     -1.478676      3.547839
  H      -5.875378     -3.222312      1.334206
  O      -6.341100     -3.783638      2.006719
  H      -6.076386     -3.364158      2.850282
  H      -7.622429      3.876973     -1.943694
  O      -7.886633      3.293922     -1.198230
  H      -7.762743      2.392749     -1.591884
  H      -6.159400     -0.055104      1.055926
  O      -6.659209     -0.138330      0.219398
  H      -7.580016     -0.212418      0.499505
  H      -5.368850     -3.131171     -0.591896
  O      -5.165097     -2.414683      0.040702
  H      -5.767004     -1.667331     -0.170161
  H      -9.028394     -1.748272     -2.323677
  O      -8.512538     -1.511576     -1.520732
  H      -8.591912     -2.262965     -0.885656
  H      -7.946111     -3.708644      0.893927
  O      -8.637984     -3.625943      0.210273
  H      -8.490929     -4.388730     -0.384892
  H      -7.799853      0.123086     -1.965502
  O      -7.370407      0.888885     -2.386044
  H      -7.605265      0.847443     -3.337405
  H      -9.992920      3.088908     -4.896865
  O     -10.214406      2.177811     -4.652941
  H     -10.360945      2.278157     -3.690652
  H     -10.478060      4.130985     -2.777972
  O     -10.563319      3.402559     -2.142772
  H      -9.704475      3.411787     -1.674701
  S      -9.502285     -0.136310      2.043440
  H     -10.345870      0.030290      1.005859
  H      -9.596029     -1.481329      1.986144
39
Coordinates from ORCA-job neb_154_317_CI_MEP.QMRegion E -2273.696314341565
  H      -4.560387      0.619286      2.191407
  O      -4.857497     -0.329941      2.185844
  H      -4.307380     -0.768213      1.522616
  H      -4.945906      4.149727      0.079438
  O      -5.406996      3.296082     -0.044948
  H      -6.346839      3.430088     -0.285246
  H      -4.344076     -2.650485      4.315270
  O      -5.224487     -2.294658      4.065945
  H      -5.021030     -1.488014      3.545795
  H      -5.879150     -3.230887      1.334129
  O      -6.343654     -3.789247      2.010677
  H      -6.067960     -3.372101      2.852157
  H      -7.619152      3.864364     -1.943856
  O      -7.879653      3.281454     -1.197316
  H      -7.760233      2.379824     -1.590807
  H      -6.167714     -0.065956      1.054201
  O      -6.668037     -0.153318      0.219075
  H      -7.585349     -0.260490      0.501829
  H      -5.368032     -3.141231     -0.591609
  O      -5.166709     -2.424747      0.042895
  H      -5.766858     -1.676955     -0.170396
  H      -9.028181     -1.762857     -2.323745
  O      -8.514213     -1.531484     -1.518160
  H      -8.592695     -2.288139     -0.889193
  H      -7.948379     -3.731878      0.886876
  O      -8.643402     -3.651806      0.206922
  H      -8.491403     -4.411547     -0.391861
  H      -7.802546      0.112905     -1.963650
  O      -7.368508      0.874379     -2.386464
  H      -7.605139      0.834284     -3.337457
  H      -9.993139      3.076880     -4.897374
  O     -10.214597      2.166441     -4.651538
  H     -10.358832      2.268147     -3.688663
  H     -10.469436      4.121324     -2.777007
  O     -10.558796      3.390247     -2.145585
  H      -9.704153      3.397486     -1.670436
  S      -9.470911     -0.393204      2.107432
  H     -10.293829     -0.733190      1.096136
  H      -9.158736     -1.683509      2.353584
39
Coordinates from ORCA-job neb_154_317_CI_MEP.QMRegion E -2273.696221218878
  H      -4.562700      0.627451      2.188507
  O      -4.860242     -0.322421      2.180963
  H      -4.313603     -0.756900      1.512834
  H      -4.945375      4.154662      0.080453
  O      -5.407754      3.301550     -0.044943
  H      -6.347340      3.440138     -0.284388
  H      -4.338696     -2.639269      4.313767
  O      -5.217745     -2.281379      4.062449
  H      -5.011934     -1.474958      3.541990
  H      -5.884353     -3.216068      1.329590
  O      -6.343083     -3.770840      2.013058
  H      -6.050688     -3.354814      2.850123
  H      -7.622436      3.882130     -1.939281
  O      -7.883142      3.302264     -1.190513
  H      -7.765772      2.400513     -1.582939
  H      -6.177662     -0.048432      1.052138
  O      -6.679442     -0.135951      0.218386
  H      -7.591770     -0.273710      0.504284
  H      -5.373671     -3.124069     -0.599745
  O      -5.172446     -2.410642      0.037099
  H      -5.770244     -1.660091     -0.175061
  H      -9.024857     -1.748810     -2.330418
  O      -8.508817     -1.522510     -1.524284
  H      -8.593245     -2.280756     -0.899360
  H      -7.962631     -3.727665      0.877854
  O      -8.654121     -3.649377      0.194939
  H      -8.496853     -4.408432     -0.403659
  H      -7.802879      0.133548     -1.960681
  O      -7.367542      0.892848     -2.385458
  H      -7.604497      0.849415     -3.336008
  H      -9.989663      3.086998     -4.897842
  O     -10.211112      2.176318     -4.652476
  H     -10.360403      2.279052     -3.690636
  H     -10.472157      4.135301     -2.782426
  O     -10.567200      3.407628     -2.147863
  H      -9.716038      3.415657     -1.667313
  S      -9.366860     -0.661566      2.208438
  H     -10.082814     -1.343830      1.293679
  H      -8.688715     -1.770649      2.576380
39
Coordinates from ORCA-job neb_154_317_CI_MEP.QMRegion E -2273.696727284451
  H      -4.556919      0.629724      2.167927
  O      -4.844067     -0.323113      2.150352
  H      -4.302147     -0.741400      1.467615
  H      -4.963864      4.154317      0.070601
  O      -5.423703      3.299704     -0.049748
  H      -6.362319      3.433762     -0.295654
  H      -4.306522     -2.612462      4.310914
  O      -5.184836     -2.254487      4.054974
  H      -4.977039     -1.453648      3.526267
  H      -5.847912     -3.200099      1.333305
  O      -6.297527     -3.743727      2.032483
  H      -5.968578     -3.332266      2.860698
  H      -7.652459      3.870186     -1.953903
  O      -7.912396      3.288929     -1.206411
  H      -7.792803      2.387247     -1.597435
  H      -6.193028     -0.061079      1.052385
  O      -6.706371     -0.147839      0.225303
  H      -7.599012     -0.362039      0.524739
  H      -5.375214     -3.115575     -0.612126
  O      -5.170047     -2.402423      0.023642
  H      -5.773472     -1.653512     -0.179939
  H      -9.028670     -1.777835     -2.318158
  O      -8.509828     -1.559740     -1.512046
  H      -8.593217     -2.320972     -0.893304
  H      -7.919762     -3.785211      0.881491
  O      -8.629554     -3.705559      0.219094
  H      -8.481472     -4.454034     -0.396301
  H      -7.809494      0.117424     -1.950999
  O      -7.373864      0.871738     -2.382888
  H      -7.614054      0.825392     -3.332649
  H     -10.026880      3.058251     -4.892922
  O     -10.238797      2.143100     -4.656767
  H     -10.401474      2.236553     -3.696189
  H     -10.516206      4.106398     -2.785811
  O     -10.615249      3.374009     -2.157453
  H      -9.765560      3.379473     -1.675030
  S      -9.131331     -1.080963      2.410231
  H      -9.757092     -1.934124      1.576121
  H      -8.165650     -1.991095      2.670590
