24
Coordinates from ORCA-job neb_2_428_CI_MEP.QMRegion E -1917.018541318715
  H      -0.533092      8.793471     -2.376229
  O      -0.327468      9.575121     -1.811479
  H       0.415634      9.282500     -1.238132
  H      -1.747206      9.541690     -0.882803
  O      -2.622232      9.465601     -0.429281
  H      -3.205724     10.027642     -0.948986
  H      -2.467812     10.985800     -3.376719
  O      -3.364901     10.728753     -3.107982
  H      -3.917454     11.427705     -3.468937
  H       1.968808      8.260704      0.615243
  O       1.684818      8.529014     -0.292430
  H       2.505086      8.479070     -0.818531
  H       3.899118      6.992243     -1.243280
  O       4.186569      7.920128     -1.404492
  H       4.497608      7.863706     -2.325059
  H       5.155676      8.428667      0.299947
  O       5.376086      8.383844      1.246474
  H       5.613831      7.449347      1.354814
  H       3.670147      8.143390      1.989469
  O       2.838258      7.628955      1.990571
  H       2.352047      7.811756      2.813955
  S      -0.416916     12.459024     -3.357645
  H       0.397047     12.221240     -4.404664
  H      -0.055638     11.309982     -2.719578
24
Coordinates from ORCA-job neb_2_428_CI_MEP.QMRegion E -1917.015041642103
  H      -0.667051      8.766903     -2.367571
  O      -0.510665      9.592098     -1.844458
  H       0.229138      9.349053     -1.248362
  H      -1.860267      9.558822     -0.853151
  O      -2.704156      9.446663     -0.344069
  H      -3.336037     10.033050     -0.760601
  H      -2.330736     10.607972     -3.043068
  O      -3.292812     10.639689     -2.978016
  H      -3.554563     11.390016     -3.519708
  H       1.869371      8.287684      0.592174
  O       1.563551      8.557648     -0.306671
  H       2.372491      8.510426     -0.850318
  H       3.796475      7.000478     -1.275667
  O       4.047370      7.931510     -1.480260
  H       4.383459      7.836468     -2.389982
  H       5.078373      8.373871      0.148361
  O       5.333266      8.349667      1.088860
  H       5.561383      7.414636      1.216419
  H       3.638800      8.145894      1.894827
  O       2.809621      7.627771      1.939111
  H       2.358147      7.819569      2.778762
  S       0.413185     12.656014     -2.829469
  H       1.490641     12.917561     -3.594164
  H       0.675716     11.334489     -2.760916
24
Coordinates from ORCA-job neb_2_428_CI_MEP.QMRegion E -1917.013214769008
  H      -0.634421      8.768903     -2.365500
  O      -0.486913      9.604188     -1.858808
  H       0.278923      9.399665     -1.284750
  H      -1.805217      9.548537     -0.833854
  O      -2.653017      9.439179     -0.332215
  H      -3.267965     10.061093     -0.728251
  H      -2.254562     10.564659     -2.962585
  O      -3.218288     10.637293     -2.948127
  H      -3.418955     11.411039     -3.480077
  H       1.921955      8.310394      0.595966
  O       1.624305      8.554992     -0.310932
  H       2.443079      8.498924     -0.837880
  H       3.861914      6.991833     -1.236127
  O       4.147832      7.915460     -1.424755
  H       4.465297      7.826335     -2.341566
  H       5.195243      8.374790      0.245047
  O       5.438484      8.338736      1.186591
  H       5.636757      7.396211      1.309005
  H       3.705110      8.160574      1.964204
  O       2.867622      7.656864      1.975400
  H       2.398206      7.836405      2.808407
  S       0.834816     12.491513     -2.555238
  H       1.969183     13.142890     -2.880927
  H       1.362956     11.286236     -2.834745
24
Coordinates from ORCA-job neb_2_428_CI_MEP.QMRegion E -1917.012705527402
  H      -0.746424      8.786179     -2.455593
  O      -0.668380      9.679211     -2.030746
  H       0.134796      9.618841     -1.487513
  H      -1.908212      9.582699     -0.884444
  O      -2.713786      9.448826     -0.327369
  H      -3.377913     10.038009     -0.692861
  H      -2.322090     10.533653     -2.925913
  O      -3.286612     10.624909     -2.955458
  H      -3.458716     11.357171     -3.551208
  H       1.841600      8.337600      0.571984
  O       1.540648      8.584156     -0.331222
  H       2.360991      8.527547     -0.853384
  H       3.820061      7.008028     -1.243789
  O       4.095490      7.932187     -1.445472
  H       4.430682      7.829356     -2.354559
  H       5.137004      8.376294      0.213473
  O       5.390082      8.349993      1.153270
  H       5.598329      7.410268      1.282130
  H       3.663969      8.155559      1.932819
  O       2.833113      7.641917      1.952440
  H       2.373269      7.819557      2.791069
  S       1.129749     12.400000     -2.491854
  H       2.311857     12.882711     -2.060120
  H       1.686653     11.262780     -2.952458
24
Coordinates from ORCA-job neb_2_428_CI_MEP.QMRegion E -1917.012716778937
  H      -0.798260      8.798830     -2.520083
  O      -0.806398      9.727192     -2.165640
  H       0.077481      9.889008     -1.813263
  H      -1.920481      9.589464     -0.889822
  O      -2.716325      9.453037     -0.323528
  H      -3.387087     10.033155     -0.692484
  H      -2.356063     10.508693     -2.928392
  O      -3.321961     10.630389     -2.957379
  H      -3.476771     11.355996     -3.564941
  H       1.864570      8.311695      0.583556
  O       1.554639      8.573063     -0.311192
  H       2.369439      8.513990     -0.839453
  H       3.829979      7.007759     -1.239054
  O       4.117831      7.927783     -1.442242
  H       4.451043      7.818226     -2.351406
  H       5.151008      8.373589      0.223639
  O       5.405925      8.349138      1.162930
  H       5.607529      7.408242      1.293722
  H       3.677490      8.154066      1.959013
  O       2.852472      7.632346      1.976829
  H       2.382082      7.812764      2.808875
  S       1.462723     12.303992     -2.508670
  H       2.213989     12.289766     -1.389921
  H       2.162857     11.291053     -3.056554
24
Coordinates from ORCA-job neb_2_428_CI_MEP.QMRegion E -1917.014597239054
  H      -0.751596      8.817930     -2.536816
  O      -0.797263      9.747559     -2.193951
  H       0.109055     10.064193     -2.068569
  H      -1.837836      9.580294     -0.830082
  O      -2.658028      9.446907     -0.305592
  H      -3.298272     10.051783     -0.689803
  H      -2.327180     10.441510     -2.874501
  O      -3.290307     10.612795     -2.900742
  H      -3.406250     11.361574     -3.488030
  H       1.952863      8.231204      0.655611
  O       1.623938      8.516865     -0.224269
  H       2.427922      8.482918     -0.767695
  H       3.888265      6.996581     -1.200102
  O       4.216050      7.906130     -1.386936
  H       4.532256      7.799899     -2.302096
  H       5.253765      8.354749      0.322912
  O       5.502849      8.316311      1.262321
  H       5.671831      7.367928      1.384222
  H       3.749439      8.143186      2.070116
  O       2.926380      7.620170      2.065047
  H       2.425428      7.801114      2.878812
  S       1.765262     11.930431     -2.248226
  H       2.246423     11.800155     -0.995381
  H       2.707299     11.113729     -2.758267
24
Coordinates from ORCA-job neb_2_428_CI_MEP.QMRegion E -1917.017182049994
  H      -0.695286      8.863138     -2.628224
  O      -0.694183      9.802141     -2.316407
  H       0.230475     10.092926     -2.275284
  H      -1.727584      9.606022     -0.837521
  O      -2.559990      9.477653     -0.340445
  H      -3.172482     10.106287     -0.734685
  H      -2.279317     10.486437     -2.936928
  O      -3.243658     10.649161     -2.930532
  H      -3.380061     11.409997     -3.498608
  H       1.993381      8.178913      0.743042
  O       1.645820      8.479043     -0.128620
  H       2.432602      8.428278     -0.696112
  H       3.883112      6.994711     -1.192985
  O       4.197170      7.909480     -1.380173
  H       4.507856      7.806591     -2.297997
  H       5.242719      8.392147      0.351999
  O       5.487398      8.353208      1.291714
  H       5.672000      7.408128      1.411710
  H       3.760572      8.173214      2.126660
  O       2.945515      7.637866      2.128164
  H       2.425089      7.836315      2.926676
  S       2.286136     11.437827     -1.616365
  H       2.082595     10.674770     -0.515851
  H       3.268877     10.619683     -2.042039
