24
Coordinates from ORCA-job neb_23_458_CI_MEP.QMRegion E -1917.025926809792
  H      -5.153470      5.793670     -5.526007
  O      -4.552926      5.022440     -5.629424
  H      -3.755231      5.310504     -6.111683
  H      -5.490513      3.446107     -5.518807
  O      -6.007392      2.753641     -5.072385
  H      -5.334579      2.188119     -4.634004
  H       2.056622     -0.203437     -7.498974
  O       1.888106      0.251069     -8.363769
  H       2.463838     -0.218411     -8.982730
  H      -1.789449      6.205368     -7.029500
  O      -2.091239      5.358001     -6.691502
  H      -1.788993      5.304882     -5.730707
  H       0.900379      3.028137     -7.151785
  O       1.817894      2.690992     -7.159825
  H       1.861116      1.963010     -7.805592
  H      -1.366892      3.698501     -7.002135
  O      -0.809941      2.957526     -6.718655
  H      -1.023021      2.142880     -7.240414
  H      -0.179177      0.277426     -8.173194
  O      -1.054704      0.573683     -7.875174
  H      -1.213976      0.073422     -7.052359
  S      -4.222430      5.522657     -9.523654
  H      -3.425636      4.479599     -9.213191
  H      -4.899806      5.397411     -8.364095
24
Coordinates from ORCA-job neb_23_458_CI_MEP.QMRegion E -1917.024918295419
  H      -5.149995      5.791925     -5.526284
  O      -4.537197      5.028972     -5.616956
  H      -3.747993      5.328909     -6.104270
  H      -5.488317      3.455844     -5.511018
  O      -6.008597      2.759166     -5.074195
  H      -5.339158      2.194136     -4.630476
  H       2.050384     -0.204354     -7.493289
  O       1.881975      0.249675     -8.358557
  H       2.457917     -0.220910     -8.976416
  H      -1.729128      6.242448     -6.987501
  O      -2.061721      5.395033     -6.679368
  H      -1.780861      5.319284     -5.713250
  H       0.909972      3.035063     -7.140000
  O       1.824824      2.690956     -7.154719
  H       1.859998      1.963853     -7.801691
  H      -1.338146      3.722904     -6.969058
  O      -0.791464      2.970337     -6.694559
  H      -1.019746      2.160590     -7.216391
  H      -0.189301      0.281219     -8.158997
  O      -1.062949      0.584267     -7.862060
  H      -1.227787      0.079676     -7.042566
  S      -3.597347      5.073407    -10.015555
  H      -2.817022      4.006477     -9.743588
  H      -4.462369      4.747979     -9.033021
24
Coordinates from ORCA-job neb_23_458_CI_MEP.QMRegion E -1917.024721063068
  H      -5.143970      5.779344     -5.525286
  O      -4.526982      5.019791     -5.609473
  H      -3.750433      5.317107     -6.117300
  H      -5.484458      3.451510     -5.522301
  O      -6.005052      2.756045     -5.083351
  H      -5.334412      2.190934     -4.641768
  H       2.052017     -0.210958     -7.493276
  O       1.881759      0.242575     -8.358809
  H       2.459208     -0.225839     -8.976986
  H      -1.692214      6.230280     -6.997142
  O      -2.056213      5.397762     -6.684296
  H      -1.782260      5.321153     -5.716618
  H       0.915225      3.029707     -7.138276
  O       1.829253      2.683002     -7.155010
  H       1.863681      1.953843     -7.799936
  H      -1.335806      3.732248     -6.980824
  O      -0.788880      2.981455     -6.698716
  H      -1.014924      2.170304     -7.217600
  H      -0.188070      0.285034     -8.158609
  O      -1.060791      0.591561     -7.862559
  H      -1.228230      0.087320     -7.043235
  S      -3.020872      4.662520    -10.322109
  H      -2.205593      3.606683    -10.117871
  H      -3.953254      4.164880     -9.483827
24
Coordinates from ORCA-job neb_23_458_CI_MEP.QMRegion E -1917.024910510534
  H      -5.134381      5.771739     -5.528922
  O      -4.517781      5.012180     -5.607746
  H      -3.745035      5.304905     -6.123280
  H      -5.480981      3.443241     -5.531318
  O      -6.002034      2.750277     -5.089173
  H      -5.331277      2.184278     -4.648696
  H       2.060141     -0.217512     -7.497338
  O       1.890505      0.233133     -8.364694
  H       2.471778     -0.234531     -8.980281
  H      -1.655975      6.205274     -7.010884
  O      -2.043827      5.385263     -6.693829
  H      -1.773986      5.308992     -5.725471
  H       0.920636      3.015617     -7.149770
  O       1.835955      2.671772     -7.163183
  H       1.874248      1.939159     -7.804080
  H      -1.323768      3.723741     -7.004550
  O      -0.781303      2.973804     -6.709952
  H      -1.002020      2.162841     -7.229561
  H      -0.169901      0.272751     -8.164114
  O      -1.044004      0.582000     -7.875016
  H      -1.216282      0.084430     -7.052924
  S      -2.472329      4.295781    -10.489928
  H      -1.630384      3.253696    -10.328230
  H      -3.443110      3.679910     -9.784462
24
Coordinates from ORCA-job neb_23_458_CI_MEP.QMRegion E -1917.025018421496
  H      -5.124369      5.774369     -5.534118
  O      -4.503585      5.017596     -5.604960
  H      -3.731221      5.308977     -6.120960
  H      -5.468526      3.439169     -5.530698
  O      -5.993184      2.751591     -5.084998
  H      -5.324258      2.181923     -4.646047
  H       2.070894     -0.217071     -7.495736
  O       1.905505      0.228988     -8.366351
  H       2.488464     -0.244802     -8.976132
  H      -1.636687      6.227772     -6.988375
  O      -2.016010      5.395447     -6.693703
  H      -1.763829      5.313620     -5.720717
  H       0.936792      3.018117     -7.146552
  O       1.850091      2.669961     -7.163676
  H       1.885805      1.936561     -7.803397
  H      -1.290406      3.717284     -6.985470
  O      -0.759627      2.963958     -6.680592
  H      -0.981586      2.155182     -7.202385
  H      -0.160681      0.246050     -8.140038
  O      -1.033787      0.566169     -7.860023
  H      -1.218953      0.070694     -7.038700
  S      -1.813506      3.828140    -10.649620
  H      -0.914145      2.840162    -10.461469
  H      -2.788510      3.112425    -10.053097
24
Coordinates from ORCA-job neb_23_458_CI_MEP.QMRegion E -1917.025383254860
  H      -5.114742      5.766009     -5.530360
  O      -4.493536      5.011234     -5.609408
  H      -3.722750      5.309105     -6.124287
  H      -5.456768      3.431846     -5.531643
  O      -5.978650      2.744008     -5.083967
  H      -5.305298      2.178067     -4.645415
  H       2.077149     -0.227145     -7.492805
  O       1.913907      0.217398     -8.365387
  H       2.498974     -0.259742     -8.970995
  H      -1.623668      6.235286     -6.980167
  O      -2.006035      5.401644     -6.693327
  H      -1.752324      5.311714     -5.721119
  H       0.944402      3.021234     -7.136383
  O       1.853861      2.663948     -7.149221
  H       1.890231      1.938679     -7.797227
  H      -1.290506      3.709837     -6.974535
  O      -0.758337      2.956679     -6.673804
  H      -0.986697      2.150197     -7.195288
  H      -0.166187      0.228978     -8.118012
  O      -1.041922      0.546505     -7.844956
  H      -1.228473      0.051630     -7.022754
  S      -1.139998      3.330849    -10.711605
  H      -0.213971      2.385468    -10.449164
  H      -2.124113      2.578511    -10.178402
24
Coordinates from ORCA-job neb_23_458_CI_MEP.QMRegion E -1917.027367413415
  H      -5.146856      5.794359     -5.526606
  O      -4.522113      5.040664     -5.611261
  H      -3.759566      5.346109     -6.131639
  H      -5.494004      3.466099     -5.536364
  O      -6.009430      2.771697     -5.089554
  H      -5.335635      2.211650     -4.647997
  H       2.039008     -0.207826     -7.487789
  O       1.883070      0.232159     -8.364441
  H       2.471265     -0.250792     -8.962075
  H      -1.628182      6.263383     -6.980431
  O      -2.034173      5.439103     -6.698962
  H      -1.778670      5.332487     -5.730249
  H       0.897628      3.040274     -7.156565
  O       1.809318      2.686375     -7.141665
  H       1.853264      1.971927     -7.798785
  H      -1.345928      3.740712     -7.011082
  O      -0.820855      2.983617     -6.708292
  H      -1.044542      2.184849     -7.240316
  H      -0.208071      0.256288     -8.125643
  O      -1.089350      0.561059     -7.857999
  H      -1.266020      0.079576     -7.025930
  S      -0.185712      2.553251    -10.594735
  H       0.747176      1.679518    -10.164294
  H      -1.177071      1.793513    -10.086524
