30
Coordinates from ORCA-job neb_40_157_CI_MEP.QMRegion E -2059.683401021347
  H       7.931319     -1.747407     -4.054441
  O       7.738537     -1.407656     -3.143480
  H       7.264930     -0.549615     -3.301583
  H       7.654376      0.942305     -6.490311
  O       7.413284      0.070606     -6.820132
  H       6.425770      0.059970     -6.779633
  H       9.543571      0.509271     -0.401190
  O       8.595298      0.408145     -0.222423
  H       8.485481     -0.503969      0.099503
  H       6.059106      1.952295     -0.398077
  O       6.633918      2.132041     -1.160762
  H       7.437237      1.627706     -0.913218
  H       6.471381      1.424504     -4.216032
  O       6.258373      0.763062     -3.524885
  H       6.205216      1.251427     -2.676612
  H       9.558082     -2.348990     -0.841825
  O       9.915084     -2.198760     -1.732833
  H       9.177676     -1.728043     -2.188178
  H       9.954249     -3.499080     -3.122066
  O       9.763828     -4.122340     -3.849231
  H       9.296668     -3.596526     -4.512565
  H       6.793737      3.413602     -4.633362
  O       6.865300      2.752959     -5.353576
  H       6.030605      2.868887     -5.841265
  H       5.232287      4.257383     -3.144932
  O       6.196933      4.303533     -3.086465
  H       6.414252      3.770220     -2.303291
  S      11.835518      0.479207     -1.311735
  H      11.283545     -0.738214     -1.583012
  H      11.464192      0.974278     -2.511403
30
Coordinates from ORCA-job neb_40_157_CI_MEP.QMRegion E -2059.679326463229
  H       7.955923     -1.796186     -4.033407
  O       7.761426     -1.458002     -3.122015
  H       7.277101     -0.606410     -3.276753
  H       7.688187      0.898626     -6.468157
  O       7.436223      0.032971     -6.803469
  H       6.450845      0.021074     -6.746959
  H       9.490038      0.376658     -0.530468
  O       8.585721      0.322698     -0.191205
  H       8.477884     -0.596557      0.119987
  H       6.078766      1.892626     -0.355544
  O       6.649214      2.068795     -1.124181
  H       7.444078      1.543864     -0.885752
  H       6.480005      1.381746     -4.171038
  O       6.279704      0.709616     -3.486420
  H       6.217089      1.190644     -2.633821
  H       9.644405     -2.401134     -0.825187
  O       9.963919     -2.223005     -1.721217
  H       9.189158     -1.796277     -2.148942
  H       9.998822     -3.537676     -3.070385
  O       9.814691     -4.168616     -3.796945
  H       9.346863     -3.650791     -4.465394
  H       6.790048      3.366701     -4.553189
  O       6.879567      2.714714     -5.280990
  H       6.057126      2.834824     -5.786857
  H       5.237780      4.212935     -3.076484
  O       6.202297      4.237236     -3.008891
  H       6.401855      3.679719     -2.236196
  S      11.439953      1.124846     -1.939403
  H      10.913706      0.221340     -2.780215
  H      10.931193      2.154222     -2.638076
30
Coordinates from ORCA-job neb_40_157_CI_MEP.QMRegion E -2059.678347347925
  H       7.950244     -1.797276     -4.033978
  O       7.753785     -1.457326     -3.124192
  H       7.270414     -0.605720     -3.280015
  H       7.690763      0.906359     -6.490182
  O       7.438116      0.034315     -6.807363
  H       6.452882      0.022083     -6.749612
  H       9.465596      0.317640     -0.611788
  O       8.584333      0.305923     -0.215741
  H       8.462794     -0.604729      0.116145
  H       6.077816      1.886050     -0.355386
  O       6.643178      2.069385     -1.126636
  H       7.441238      1.545867     -0.897914
  H       6.477486      1.389603     -4.171355
  O       6.278994      0.713762     -3.489805
  H       6.213001      1.191418     -2.635732
  H       9.630892     -2.404214     -0.829020
  O       9.958085     -2.221331     -1.722229
  H       9.186539     -1.795504     -2.154644
  H      10.001908     -3.533649     -3.080353
  O       9.812539     -4.165891     -3.804354
  H       9.344833     -3.648501     -4.472498
  H       6.772191      3.380043     -4.535151
  O       6.876393      2.734102     -5.267406
  H       6.056976      2.847387     -5.779322
  H       5.229516      4.218260     -3.062854
  O       6.194133      4.237792     -2.994797
  H       6.391414      3.671769     -2.227445
  S      11.206761      1.343120     -2.254473
  H      10.586755      0.725137     -3.278409
  H      10.738969      2.554367     -2.619280
30
Coordinates from ORCA-job neb_40_157_CI_MEP.QMRegion E -2059.678208515212
  H       7.937537     -1.783860     -4.043591
  O       7.737334     -1.442858     -3.135141
  H       7.254219     -0.591780     -3.292611
  H       7.677962      0.923778     -6.514322
  O       7.427871      0.045999     -6.817213
  H       6.441662      0.034613     -6.762887
  H       9.433490      0.296980     -0.689263
  O       8.574919      0.311672     -0.247506
  H       8.451823     -0.592638      0.099866
  H       6.064091      1.895795     -0.364926
  O       6.625947      2.080541     -1.138007
  H       7.425849      1.557292     -0.915290
  H       6.459104      1.407135     -4.182269
  O       6.264238      0.729100     -3.501748
  H       6.195354      1.204292     -2.646715
  H       9.618307     -2.385879     -0.848911
  O       9.949027     -2.194955     -1.739000
  H       9.176720     -1.774317     -2.175219
  H       9.994039     -3.513154     -3.093390
  O       9.800979     -4.148687     -3.813424
  H       9.335520     -3.631811     -4.483779
  H       6.748337      3.399255     -4.534515
  O       6.861451      2.757067     -5.269105
  H       6.043900      2.866857     -5.785169
  H       5.209888      4.234695     -3.065779
  O       6.174652      4.249397     -2.996235
  H       6.368914      3.678389     -2.231714
  S      11.002472      1.484985     -2.481332
  H      10.267101      1.063777     -3.530405
  H      10.575000      2.756539     -2.628907
30
Coordinates from ORCA-job neb_40_157_CI_MEP.QMRegion E -2059.678212357495
  H       7.922594     -1.769105     -4.054037
  O       7.717990     -1.427046     -3.147001
  H       7.230754     -0.579056     -3.307243
  H       7.655328      0.937283     -6.528610
  O       7.409125      0.056996     -6.827067
  H       6.421612      0.045478     -6.775268
  H       9.384204      0.286841     -0.780261
  O       8.562517      0.319586     -0.274701
  H       8.444112     -0.583556      0.077005
  H       6.043759      1.905353     -0.372894
  O       6.604523      2.087494     -1.146854
  H       7.402715      1.559961     -0.926443
  H       6.432047      1.421254     -4.192220
  O       6.241220      0.741418     -3.512223
  H       6.168022      1.213586     -2.656088
  H       9.602697     -2.373474     -0.866587
  O       9.938014     -2.172713     -1.752842
  H       9.168464     -1.750486     -2.192116
  H       9.976104     -3.495539     -3.096451
  O       9.785381     -4.133439     -3.815166
  H       9.321821     -3.617750     -4.487922
  H       6.719753      3.410300     -4.535432
  O       6.837630      2.770316     -5.271111
  H       6.022105      2.881209     -5.791174
  H       5.181388      4.247864     -3.068828
  O       6.146182      4.256884     -2.996113
  H       6.335868      3.681543     -2.233678
  S      10.762799      1.624592     -2.713473
  H       9.915681      1.368912     -3.732718
  H      10.384628      2.919265     -2.654869
30
Coordinates from ORCA-job neb_40_157_CI_MEP.QMRegion E -2059.678295678151
  H       7.909982     -1.761766     -4.057894
  O       7.700467     -1.418466     -3.152655
  H       7.213899     -0.570710     -3.315415
  H       7.641713      0.944922     -6.543958
  O       7.399341      0.059781     -6.830163
  H       6.411141      0.046452     -6.782411
  H       9.332284      0.259431     -0.874160
  O       8.552506      0.320244     -0.309611
  H       8.438923     -0.577008      0.058062
  H       6.026861      1.907783     -0.376921
  O       6.582949      2.091660     -1.153615
  H       7.382916      1.563852     -0.940135
  H       6.410829      1.432351     -4.198783
  O       6.225283      0.749983     -3.519796
  H       6.144802      1.219843     -2.663222
  H       9.586080     -2.363532     -0.878912
  O       9.925522     -2.154428     -1.761734
  H       9.155862     -1.737101     -2.205719
  H       9.961775     -3.483356     -3.099122
  O       9.772316     -4.123827     -3.815902
  H       9.306840     -3.610983     -4.489662
  H       6.692876      3.419108     -4.529261
  O       6.821751      2.782702     -5.266645
  H       6.009631      2.890170     -5.793392
  H       5.155987      4.257357     -3.068483
  O       6.120764      4.258843     -2.992602
  H       6.304680      3.679077     -2.231899
  S      10.448566      1.781703     -2.979105
  H       9.484020      1.691166     -3.918939
  H      10.151350      3.073074     -2.721699
30
Coordinates from ORCA-job neb_40_157_CI_MEP.QMRegion E -2059.678477036698
  H       7.909372     -1.757549     -4.067453
  O       7.700774     -1.419021     -3.159643
  H       7.224999     -0.565113     -3.317134
  H       7.653982      0.952611     -6.565299
  O       7.400379      0.067026     -6.839051
  H       6.412313      0.062003     -6.788447
  H       9.306192      0.194563     -0.982510
  O       8.564362      0.306135     -0.377077
  H       8.448953     -0.573045      0.030839
  H       6.035167      1.890787     -0.375539
  O       6.573340      2.087236     -1.162081
  H       7.383703      1.565606     -0.976307
  H       6.384846      1.439567     -4.200203
  O       6.213188      0.750367     -3.526636
  H       6.139521      1.213710     -2.665600
  H       9.596200     -2.355972     -0.908763
  O       9.935525     -2.129121     -1.787076
  H       9.152806     -1.741857     -2.238561
  H       9.978685     -3.475605     -3.121133
  O       9.773711     -4.119362     -3.829821
  H       9.314913     -3.603354     -4.505929
  H       6.649488      3.443086     -4.507199
  O       6.806169      2.818208     -5.251134
  H       5.999079      2.907090     -5.789329
  H       5.142703      4.261277     -3.046288
  O       6.107874      4.253221     -2.975669
  H       6.291624      3.660648     -2.223774
  S       9.923594      2.004046     -3.323631
  H       8.859658      2.076006     -4.150650
  H       9.757004      3.281070     -2.922449
