33
Coordinates from ORCA-job neb_17_281_CI_MEP.QMRegion E -2131.025739290611
  H       4.878178     -6.301908     -2.312507
  O       5.194521     -6.629305     -3.185155
  H       6.135311     -6.813996     -3.098547
  H       0.053833     -7.037873     -1.177745
  O       0.495375     -7.494914     -0.421585
  H      -0.220607     -7.616146      0.210925
  H       5.893885     -7.921068      0.090657
  O       5.669720     -8.625378     -0.557082
  H       4.836633     -8.328778     -0.971345
  H       2.374164     -8.078258     -0.879644
  O       2.987536     -8.069579     -1.630215
  H       2.621574     -8.737072     -2.250000
  H      -2.629088     -9.796533     -0.648820
  O      -2.673240     -8.866149     -0.887848
  H      -3.615591     -8.591504     -0.668850
  H      -0.316404     -7.883264      2.465832
  O       0.508615     -7.799837      2.966880
  H       1.210903     -8.125425      2.384090
  H       6.927832     -8.442844     -1.780283
  O       7.525358     -8.219925     -2.535934
  H       8.328788     -8.728605     -2.404605
  H       1.544667    -10.578932     -2.660314
  O       1.915629     -9.979707     -3.322920
  H       1.159190     -9.709281     -3.888541
  H       4.071765     -7.550339     -4.333889
  O       3.328601     -7.731126     -4.942398
  H       3.037557     -8.613281     -4.698010
  H       3.818501     -8.910184      1.135652
  O       3.034351     -8.416981      1.400379
  H       3.400189     -7.547862      1.676044
  S       0.752645    -10.999705     -0.247121
  H       1.558465    -10.067722      0.302831
  H       1.453255    -12.026150      0.276859
33
Coordinates from ORCA-job neb_17_281_CI_MEP.QMRegion E -2131.025114999952
  H       4.875169     -6.283801     -2.288771
  O       5.204881     -6.607502     -3.159232
  H       6.146921     -6.777411     -3.061149
  H       0.048451     -7.028516     -1.172319
  O       0.492157     -7.491847     -0.421482
  H      -0.219168     -7.614886      0.215555
  H       5.885743     -7.934021      0.109357
  O       5.664367     -8.636647     -0.540959
  H       4.821315     -8.347708     -0.940505
  H       2.339541     -8.087245     -0.876874
  O       2.978858     -8.065882     -1.606198
  H       2.630854     -8.710457     -2.260129
  H      -2.687072     -9.795344     -0.703297
  O      -2.686672     -8.855875     -0.907452
  H      -3.623912     -8.560655     -0.687522
  H      -0.328498     -7.886977      2.466725
  O       0.492521     -7.808985      2.974661
  H       1.198193     -8.148920      2.402081
  H       6.917502     -8.434888     -1.762904
  O       7.527220     -8.217770     -2.511050
  H       8.333228     -8.714743     -2.353270
  H       1.762976    -10.616151     -2.860015
  O       2.026865     -9.885708     -3.437279
  H       1.226414     -9.650290     -3.958298
  H       4.093151     -7.477992     -4.336048
  O       3.358272     -7.655335     -4.956132
  H       3.073951     -8.543507     -4.723419
  H       3.779243     -8.952262      1.258229
  O       2.998738     -8.421351      1.445448
  H       3.379729     -7.551426      1.695579
  S       1.356813    -11.556099     -0.559776
  H       2.007938    -10.514038     -0.002674
  H       2.409766    -12.384686     -0.408063
33
Coordinates from ORCA-job neb_17_281_CI_MEP.QMRegion E -2131.024726159941
  H       4.889247     -6.287063     -2.299036
  O       5.215445     -6.609035     -3.170615
  H       6.158599     -6.776807     -3.079008
  H       0.060427     -7.024629     -1.174448
  O       0.507612     -7.488360     -0.426258
  H      -0.201800     -7.619705      0.210865
  H       5.902710     -7.927992      0.095102
  O       5.684888     -8.619977     -0.567374
  H       4.831450     -8.335320     -0.947930
  H       2.358474     -8.086285     -0.871524
  O       2.993602     -8.061453     -1.604520
  H       2.645332     -8.706414     -2.256789
  H      -2.659650     -9.794163     -0.689855
  O      -2.676395     -8.857208     -0.903868
  H      -3.616071     -8.571204     -0.684456
  H      -0.308435     -7.883189      2.469810
  O       0.509829     -7.800470      2.980668
  H       1.222875     -8.131101      2.410026
  H       6.921923     -8.426884     -1.786622
  O       7.535503     -8.215425     -2.534675
  H       8.339443     -8.714213     -2.372501
  H       1.870105    -10.655504     -2.973556
  O       2.058356     -9.850376     -3.475348
  H       1.238763     -9.635732     -3.975394
  H       4.100145     -7.477158     -4.360894
  O       3.356881     -7.646437     -4.972177
  H       3.065870     -8.531726     -4.733839
  H       3.773126     -8.955516      1.351505
  O       2.995825     -8.399525      1.457389
  H       3.381707     -7.527806      1.696822
  S       1.855069    -11.843856     -0.736692
  H       2.413357    -10.757071     -0.164294
  H       3.043318    -12.470403     -0.852055
33
Coordinates from ORCA-job neb_17_281_CI_MEP.QMRegion E -2131.024991970115
  H       4.900389     -6.285445     -2.293392
  O       5.229421     -6.602659     -3.165832
  H       6.175775     -6.752526     -3.077658
  H       0.060878     -7.016772     -1.178151
  O       0.511721     -7.483953     -0.434235
  H      -0.196324     -7.623990      0.202312
  H       5.913945     -7.934864      0.093386
  O       5.707119     -8.621543     -0.578074
  H       4.850583     -8.342593     -0.955217
  H       2.371113     -8.101489     -0.877198
  O       3.006591     -8.067290     -1.609495
  H       2.659800     -8.701463     -2.272899
  H      -2.671776     -9.787318     -0.714170
  O      -2.684482     -8.847332     -0.913836
  H      -3.624140     -8.562165     -0.689235
  H      -0.294123     -7.887111      2.459335
  O       0.521287     -7.800152      2.973551
  H       1.240110     -8.123719      2.404470
  H       6.944511     -8.422907     -1.795997
  O       7.559530     -8.214774     -2.543894
  H       8.369795     -8.698674     -2.368068
  H       1.972297    -10.663738     -3.047833
  O       2.104444     -9.828915     -3.518284
  H       1.267139     -9.634583     -3.996914
  H       4.116517     -7.453884     -4.369633
  O       3.371560     -7.625892     -4.977625
  H       3.091517     -8.516066     -4.742597
  H       3.734951     -8.985804      1.405184
  O       2.979182     -8.394280      1.454103
  H       3.386207     -7.532344      1.693755
  S       2.330952    -12.003300     -0.937576
  H       2.803653    -10.865026     -0.388419
  H       3.567720    -12.416678     -1.280596
33
Coordinates from ORCA-job neb_17_281_CI_MEP.QMRegion E -2131.025062601324
  H       4.915133     -6.283315     -2.311571
  O       5.242244     -6.603704     -3.182593
  H       6.190597     -6.744868     -3.100595
  H       0.076704     -7.012683     -1.188655
  O       0.529157     -7.478717     -0.445048
  H      -0.178069     -7.622050      0.191104
  H       5.928330     -7.928613      0.073383
  O       5.716634     -8.600772     -0.610826
  H       4.856737     -8.312256     -0.974408
  H       2.391982     -8.089115     -0.875230
  O       3.021717     -8.053880     -1.612569
  H       2.673666     -8.696900     -2.265655
  H      -2.641629     -9.784596     -0.718414
  O      -2.667057     -8.845440     -0.921166
  H      -3.607999     -8.567372     -0.700072
  H      -0.283467     -7.879700      2.456244
  O       0.530787     -7.792954      2.972066
  H       1.253675     -8.106463      2.400931
  H       6.948115     -8.412080     -1.825222
  O       7.567031     -8.212052     -2.572885
  H       8.375570     -8.696203     -2.390063
  H       2.063576    -10.677195     -3.164150
  O       2.104524     -9.784686     -3.532592
  H       1.259578     -9.618709     -4.008795
  H       4.125267     -7.460307     -4.398029
  O       3.371463     -7.627178     -4.995043
  H       3.073105     -8.506147     -4.736676
  H       3.706696     -8.988165      1.449334
  O       2.965981     -8.376674      1.451990
  H       3.384751     -7.518454      1.686215
  S       2.973013    -12.098750     -1.277115
  H       3.346151    -10.986757     -0.609699
  H       4.183198    -12.207356     -1.861660
33
Coordinates from ORCA-job neb_17_281_CI_MEP.QMRegion E -2131.025502830495
  H       4.916190     -6.270870     -2.316618
  O       5.245866     -6.595445     -3.185272
  H       6.197192     -6.716472     -3.106451
  H       0.076769     -6.999521     -1.192747
  O       0.530298     -7.467745     -0.450909
  H      -0.175620     -7.612431      0.186092
  H       5.929546     -7.920603      0.064967
  O       5.713925     -8.579268     -0.631357
  H       4.853027     -8.280324     -0.985101
  H       2.392066     -8.073857     -0.872106
  O       3.023130     -8.037710     -1.608581
  H       2.679142     -8.686085     -2.257427
  H      -2.640777     -9.771306     -0.730115
  O      -2.665737     -8.831423     -0.929191
  H      -3.606910     -8.554283     -0.707767
  H      -0.285109     -7.866894      2.455127
  O       0.527428     -7.781932      2.973931
  H       1.254418     -8.083532      2.399776
  H       6.945774     -8.391700     -1.840830
  O       7.568899     -8.204109     -2.588639
  H       8.379469     -8.678091     -2.388765
  H       2.173727    -10.669426     -3.277969
  O       2.110359     -9.742858     -3.541858
  H       1.259824     -9.612101     -4.019143
  H       4.126462     -7.445006     -4.416120
  O       3.368056     -7.612416     -5.006048
  H       3.055692     -8.480519     -4.724147
  H       3.645084     -8.998493      1.475196
  O       2.930717     -8.357418      1.453112
  H       3.375467     -7.511952      1.686213
  S       3.638623    -12.051989     -1.702403
  H       3.909121    -10.990822     -0.913280
  H       4.724531    -11.807535     -2.464532
33
Coordinates from ORCA-job neb_17_281_CI_MEP.QMRegion E -2131.027841441454
  H       4.852666     -6.281539     -2.296247
  O       5.183105     -6.612916     -3.164992
  H       6.130934     -6.746951     -3.070862
  H       0.028482     -7.017720     -1.143845
  O       0.487207     -7.480454     -0.403800
  H      -0.207203     -7.624661      0.247235
  H       5.874236     -7.944793      0.098633
  O       5.638639     -8.596425     -0.598175
  H       4.760227     -8.305318     -0.917975
  H       2.294024     -8.081718     -0.821640
  O       2.954624     -8.049811     -1.534194
  H       2.655167     -8.731532     -2.165024
  H      -2.680358     -9.813012     -0.659587
  O      -2.687703     -8.878749     -0.885576
  H      -3.624706     -8.583191     -0.665376
  H      -0.343286     -7.877456      2.544991
  O       0.465900     -7.782524      3.066359
  H       1.196250     -8.096659      2.499439
  H       6.858463     -8.399058     -1.806446
  O       7.484020     -8.236885     -2.558903
  H       8.287680     -8.715440     -2.340828
  H       2.442348    -10.671727     -3.574234
  O       2.068126     -9.790720     -3.467580
  H       1.247937     -9.714699     -4.001871
  H       4.061193     -7.474928     -4.386349
  O       3.303224     -7.657235     -4.972360
  H       2.938469     -8.477758     -4.612297
  H       3.456409     -9.071468      1.616948
  O       2.802519     -8.371261      1.562119
  H       3.310541     -7.552708      1.751884
  S       5.005129    -11.459697     -2.856678
  H       5.126341    -10.748552     -1.715321
  H       5.626878    -10.493702     -3.565916
