21
Coordinates from ORCA-job neb_132_458_CI_MEP.QMRegion E -1845.686796525694
  H      -0.671065      4.542577     -4.021292
  O      -1.460707      5.082286     -4.235834
  H      -1.313656      5.938029     -3.783259
  H       1.945481     -0.226088     -7.530296
  O       1.761217      0.236216     -8.384711
  H       2.347231     -0.208828     -9.010952
  H      -2.108449      6.490089     -6.846517
  O      -2.110707      5.541690     -6.699280
  H      -1.778567      5.405331     -5.752922
  H       0.775343      3.005407     -7.179886
  O       1.704377      2.702555     -7.162329
  H       1.765882      1.971674     -7.805471
  H      -1.595151      3.620720     -7.117390
  O      -0.998087      2.934422     -6.796354
  H      -1.194898      2.091502     -7.281605
  H      -0.404739      0.246807     -8.243006
  O      -1.266625      0.526654     -7.898407
  H      -1.360715      0.033750     -7.060530
  S       0.485439      5.783716     -9.178135
  H       1.552027      5.416104     -8.437509
  H      -0.364358      5.549785     -8.150285
21
Coordinates from ORCA-job neb_132_458_CI_MEP.QMRegion E -1845.686779880551
  H      -0.661644      4.566739     -4.006832
  O      -1.451774      5.101841     -4.228333
  H      -1.309592      5.962238     -3.781569
  H       1.967895     -0.211297     -7.493799
  O       1.784595      0.254241     -8.348556
  H       2.364546     -0.196496     -8.976133
  H      -2.023691      6.419139     -6.927642
  O      -2.109541      5.490688     -6.702603
  H      -1.771127      5.396359     -5.754202
  H       0.773199      3.004281     -7.140843
  O       1.710833      2.724384     -7.155687
  H       1.767677      1.980721     -7.785443
  H      -1.572934      3.638264     -7.051833
  O      -0.972079      2.937422     -6.765376
  H      -1.184921      2.097660     -7.250130
  H      -0.370386      0.254432     -8.194576
  O      -1.236541      0.535016     -7.860957
  H      -1.340059      0.042910     -7.022618
  S       0.402073      5.269650     -9.766492
  H       1.415596      4.906018     -8.951689
  H      -0.508310      5.044939     -8.794705
21
Coordinates from ORCA-job neb_132_458_CI_MEP.QMRegion E -1845.686811955516
  H      -0.656513      4.545182     -4.033848
  O      -1.442890      5.083780     -4.261789
  H      -1.302835      5.941792     -3.811763
  H       1.970168     -0.242528     -7.521091
  O       1.784756      0.212391     -8.380374
  H       2.374518     -0.235354     -9.001713
  H      -1.963299      6.319182     -7.025502
  O      -2.111172      5.413868     -6.745623
  H      -1.766372      5.347372     -5.798425
  H       0.775298      2.953618     -7.171056
  O       1.718099      2.688990     -7.196020
  H       1.776584      1.933765     -7.812209
  H      -1.541939      3.614018     -7.073705
  O      -0.955971      2.896633     -6.791223
  H      -1.180183      2.063428     -7.280127
  H      -0.363118      0.210140     -8.225279
  O      -1.230120      0.492469     -7.894919
  H      -1.333299      0.009704     -7.051814
  S       0.377829      5.108190     -9.922164
  H       1.366066      4.680207     -9.107181
  H      -0.562049      4.788400     -9.006920
21
Coordinates from ORCA-job neb_132_458_CI_MEP.QMRegion E -1845.686792270855
  H      -0.660213      4.533350     -4.036887
  O      -1.447101      5.071105     -4.267416
  H      -1.308022      5.930529     -3.822150
  H       1.964832     -0.266620     -7.525199
  O       1.780769      0.185039     -8.386469
  H       2.375862     -0.259965     -9.004895
  H      -1.898927      6.215238     -7.096561
  O      -2.112303      5.344678     -6.755890
  H      -1.770029      5.310331     -5.806258
  H       0.773277      2.916859     -7.177759
  O       1.719750      2.662721     -7.217408
  H       1.774693      1.894885     -7.818982
  H      -1.511632      3.611319     -7.062668
  O      -0.940843      2.871935     -6.796558
  H      -1.184388      2.047290     -7.288138
  H      -0.362984      0.181367     -8.230783
  O      -1.230458      0.466593     -7.904165
  H      -1.335763     -0.010782     -7.058508
  S       0.343317      4.950496    -10.072213
  H       1.302721      4.443181     -9.266967
  H      -0.630015      4.445239     -9.284841
21
Coordinates from ORCA-job neb_132_458_CI_MEP.QMRegion E -1845.686797953543
  H      -0.669668      4.532256     -4.013350
  O      -1.460241      5.066918     -4.236679
  H      -1.315220      5.930618     -3.800632
  H       1.959820     -0.266082     -7.515893
  O       1.774227      0.174831     -8.383301
  H       2.378004     -0.271019     -8.993162
  H      -1.862806      6.167090     -7.095057
  O      -2.111191      5.315207     -6.732405
  H      -1.778001      5.291463     -5.779690
  H       0.792837      2.920871     -7.177090
  O       1.735323      2.650704     -7.212961
  H       1.782251      1.870096     -7.797512
  H      -1.474285      3.618369     -7.050370
  O      -0.919021      2.867983     -6.775229
  H      -1.169474      2.046065     -7.263514
  H      -0.352700      0.163187     -8.212214
  O      -1.222376      0.458928     -7.900672
  H      -1.340318     -0.008656     -7.050752
  S       0.125506      4.446674    -10.246952
  H       1.117573      3.767652     -9.634014
  H      -0.817120      3.660512     -9.690611
21
Coordinates from ORCA-job neb_132_458_CI_MEP.QMRegion E -1845.687387696451
  H      -0.666574      4.549841     -3.997856
  O      -1.459174      5.083468     -4.215817
  H      -1.312607      5.949140     -3.783138
  H       1.990357     -0.223142     -7.491367
  O       1.816297      0.221750     -8.361418
  H       2.407324     -0.243891     -8.968765
  H      -1.866336      6.215097     -7.049970
  O      -2.103630      5.352939     -6.705372
  H      -1.776820      5.317974     -5.749488
  H       0.839728      2.996935     -7.155659
  O       1.766453      2.680128     -7.149459
  H       1.816160      1.930307     -7.768571
  H      -1.427693      3.664270     -7.033264
  O      -0.887683      2.916758     -6.724949
  H      -1.111489      2.100488     -7.230718
  H      -0.285151      0.199564     -8.163805
  O      -1.161236      0.504876     -7.880448
  H      -1.312925      0.033935     -7.037176
  S      -0.089688      3.629966    -10.359694
  H       0.894643      2.753469    -10.073780
  H      -1.043550      2.739776    -10.016505
21
Coordinates from ORCA-job neb_132_458_CI_MEP.QMRegion E -1845.688816188959
  H      -0.661948      4.570185     -4.026704
  O      -1.448481      5.109915     -4.249181
  H      -1.306362      5.969345     -3.802182
  H       2.029206     -0.189117     -7.479521
  O       1.870532      0.256706     -8.352878
  H       2.449257     -0.230381     -8.955709
  H      -1.854881      6.247775     -7.091588
  O      -2.100316      5.393734     -6.732778
  H      -1.769885      5.367441     -5.778169
  H       0.844462      3.044418     -7.123857
  O       1.770076      2.722958     -7.117147
  H       1.830184      2.011972     -7.776151
  H      -1.407949      3.721437     -7.023223
  O      -0.872350      2.972042     -6.710505
  H      -1.082317      2.165399     -7.234871
  H      -0.231419      0.248401     -8.121231
  O      -1.116404      0.545141     -7.857861
  H      -1.289819      0.064455     -7.024385
  S      -0.223807      2.650485    -10.517815
  H       0.738860      1.810088    -10.087647
  H      -1.191170      1.833233    -10.053855
