30
Coordinates from ORCA-job neb_149_405_CI_MEP.QMRegion E -2059.685897923815
  H      -6.121505     -1.516015     -3.371136
  O      -6.231728     -2.176205     -2.661367
  H      -6.995735     -1.879891     -2.115765
  H      -5.121311     -0.034641     -4.755497
  O      -5.689682     -0.780691     -5.031166
  H      -6.525664     -0.359090     -5.284576
  H      -7.389705      1.681121     -5.193537
  O      -7.980367      0.938670     -4.968294
  H      -8.875332      1.371477     -4.878395
  H      -4.083992     -3.136376     -4.873350
  O      -4.219857     -3.085551     -5.850415
  H      -4.616289     -2.210964     -5.973822
  H      -7.934354      0.084163     -1.905377
  O      -7.410936      0.790059     -2.308575
  H      -7.638130      0.832915     -3.263429
  H      -7.013055     -3.491401     -3.478448
  O      -7.617022     -4.143729     -3.906082
  H      -7.036715     -4.654378     -4.510558
  H     -10.149039      3.127778     -4.839491
  O     -10.277484      2.200711     -4.579056
  H     -10.439682      2.301190     -3.614329
  H      -5.169884     -5.906847     -5.366353
  O      -5.861013     -5.298129     -5.680049
  H      -5.361541     -4.489235     -5.922206
  H      -8.927841     -2.885885     -4.074925
  O      -9.545093     -2.164202     -3.826120
  H      -9.330643     -1.428088     -4.406281
  S      -8.614472     -6.296353     -7.414828
  H      -7.378511     -6.020936     -6.933037
  H      -9.198626     -5.680064     -6.366286
30
Coordinates from ORCA-job neb_149_405_CI_MEP.QMRegion E -2059.685269534314
  H      -6.133007     -1.588507     -3.356030
  O      -6.257785     -2.256439     -2.654494
  H      -7.013649     -1.947173     -2.104157
  H      -5.113470     -0.075119     -4.699273
  O      -5.673059     -0.831138     -4.966092
  H      -6.514303     -0.419796     -5.221023
  H      -7.345264      1.641153     -5.178749
  O      -7.933269      0.897737     -4.949195
  H      -8.826266      1.332642     -4.865580
  H      -4.085628     -3.182995     -4.857040
  O      -4.232473     -3.129189     -5.833748
  H      -4.623309     -2.250311     -5.943835
  H      -7.911380      0.054843     -1.883988
  O      -7.404623      0.774175     -2.285692
  H      -7.615630      0.798025     -3.244902
  H      -7.027961     -3.552975     -3.506440
  O      -7.634633     -4.205499     -3.930390
  H      -7.064014     -4.711122     -4.550468
  H     -10.113859      3.094078     -4.830886
  O     -10.230433      2.170228     -4.556172
  H     -10.399948      2.282824     -3.593849
  H      -5.232912     -5.953854     -5.422173
  O      -5.903937     -5.328658     -5.743948
  H      -5.379015     -4.517782     -5.916059
  H      -8.965958     -2.976703     -4.049725
  O      -9.585612     -2.262686     -3.784170
  H      -9.441888     -1.551873     -4.415009
  S      -8.917147     -4.634006     -7.722512
  H      -7.607247     -4.887940     -7.522910
  H      -9.209629     -5.000965     -6.457878
30
Coordinates from ORCA-job neb_149_405_CI_MEP.QMRegion E -2059.684515802753
  H      -6.159511     -1.595155     -3.362738
  O      -6.277964     -2.266483     -2.662957
  H      -7.025284     -1.951325     -2.102715
  H      -5.154809     -0.065321     -4.692912
  O      -5.724114     -0.813505     -4.959664
  H      -6.566413     -0.393688     -5.198755
  H      -7.387419      1.673516     -5.165021
  O      -7.975657      0.931230     -4.934483
  H      -8.873290      1.357893     -4.857522
  H      -4.113070     -3.191832     -4.856300
  O      -4.268078     -3.135823     -5.831506
  H      -4.666139     -2.259220     -5.933762
  H      -7.928052      0.062599     -1.876131
  O      -7.417725      0.777645     -2.281171
  H      -7.648462      0.813754     -3.235557
  H      -7.088962     -3.539851     -3.507353
  O      -7.694674     -4.199656     -3.922508
  H      -7.117586     -4.714708     -4.529436
  H     -10.170724      3.096466     -4.830846
  O     -10.295972      2.173113     -4.557894
  H     -10.450172      2.286274     -3.592867
  H      -5.273233     -5.962709     -5.375471
  O      -5.953128     -5.348215     -5.697268
  H      -5.435168     -4.539950     -5.892702
  H      -9.059984     -2.986623     -4.028950
  O      -9.668625     -2.274495     -3.737068
  H      -9.583029     -1.580255     -4.395600
  S      -9.167455     -4.076251     -7.611373
  H      -7.831505     -4.082850     -7.791181
  H      -9.053931     -4.849376     -6.512373
30
Coordinates from ORCA-job neb_149_405_CI_MEP.QMRegion E -2059.684558130639
  H      -6.157884     -1.582524     -3.366185
  O      -6.272881     -2.252427     -2.665029
  H      -7.023864     -1.941924     -2.107009
  H      -5.154199     -0.058386     -4.703459
  O      -5.725248     -0.803966     -4.973629
  H      -6.569406     -0.381682     -5.203099
  H      -7.385859      1.680389     -5.172180
  O      -7.973350      0.935967     -4.946634
  H      -8.871401      1.360990     -4.868341
  H      -4.112086     -3.185173     -4.859582
  O      -4.262659     -3.124514     -5.835063
  H      -4.657494     -2.246243     -5.935504
  H      -7.930426      0.066202     -1.883249
  O      -7.418473      0.780334     -2.287880
  H      -7.649542      0.817450     -3.241971
  H      -7.082078     -3.531394     -3.509508
  O      -7.683982     -4.196336     -3.920845
  H      -7.105060     -4.712127     -4.524943
  H     -10.165260      3.105913     -4.832838
  O     -10.291915      2.181092     -4.565112
  H     -10.447299      2.289065     -3.599940
  H      -5.266949     -5.954206     -5.379736
  O      -5.949496     -5.343554     -5.703381
  H      -5.435034     -4.535836     -5.907684
  H      -9.072097     -2.999166     -4.026449
  O      -9.677610     -2.288518     -3.727240
  H      -9.629453     -1.613317     -4.409271
  S      -9.223589     -3.617214     -7.517722
  H      -7.976292     -3.225749     -7.848176
  H      -8.747027     -4.582640     -6.704562
30
Coordinates from ORCA-job neb_149_405_CI_MEP.QMRegion E -2059.684950407564
  H      -6.155610     -1.560977     -3.373044
  O      -6.265926     -2.229507     -2.670279
  H      -7.020528     -1.924967     -2.113962
  H      -5.154543     -0.044247     -4.717219
  O      -5.729301     -0.785484     -4.991424
  H      -6.574691     -0.358584     -5.209593
  H      -7.385034      1.694920     -5.187978
  O      -7.971523      0.947123     -4.970810
  H      -8.870173      1.369315     -4.889301
  H      -4.101869     -3.157885     -4.862807
  O      -4.244668     -3.091905     -5.838680
  H      -4.645887     -2.216559     -5.939206
  H      -7.935189      0.075682     -1.897941
  O      -7.420095      0.787928     -2.301681
  H      -7.651645      0.827781     -3.255255
  H      -7.066596     -3.518950     -3.517424
  O      -7.663753     -4.189733     -3.925105
  H      -7.085111     -4.699275     -4.534641
  H     -10.159529      3.123398     -4.837698
  O     -10.287931      2.196255     -4.578131
  H     -10.444131      2.296073     -3.612642
  H      -5.252715     -5.926816     -5.400913
  O      -5.929299     -5.310427     -5.725983
  H      -5.410526     -4.503430     -5.922659
  H      -9.076642     -3.027011     -4.007160
  O      -9.690920     -2.323191     -3.710714
  H      -9.698078     -1.685030     -4.429201
  S      -9.291800     -3.098137     -7.402895
  H      -8.181122     -2.419804     -7.754070
  H      -8.567128     -4.082788     -6.830750
30
Coordinates from ORCA-job neb_149_405_CI_MEP.QMRegion E -2059.685128166423
  H      -6.133143     -1.518884     -3.373810
  O      -6.235186     -2.179974     -2.663969
  H      -7.006600     -1.894963     -2.121720
  H      -5.127328     -0.028423     -4.739719
  O      -5.702461     -0.766408     -5.022977
  H      -6.546667     -0.335271     -5.236750
  H      -7.366656      1.699968     -5.231279
  O      -7.954587      0.946912     -5.034936
  H      -8.849136      1.372768     -4.932093
  H      -4.075310     -3.122832     -4.868442
  O      -4.200942     -3.053532     -5.845786
  H      -4.598355     -2.177933     -5.955500
  H      -7.934020      0.086268     -1.927715
  O      -7.414730      0.796177     -2.330245
  H      -7.640724      0.835004     -3.283620
  H      -6.991045     -3.508708     -3.515164
  O      -7.583018     -4.181108     -3.924238
  H      -7.008177     -4.684360     -4.544198
  H     -10.127594      3.146904     -4.837470
  O     -10.250816      2.215244     -4.590554
  H     -10.414994      2.301003     -3.625580
  H      -5.197907     -5.902251     -5.413537
  O      -5.872347     -5.285587     -5.743836
  H      -5.353866     -4.479613     -5.942802
  H      -9.019677     -3.082603     -3.964623
  O      -9.665036     -2.396181     -3.692088
  H      -9.719624     -1.803893     -4.447705
  S      -9.317874     -2.451929     -7.330185
  H      -8.472598     -1.405379     -7.412935
  H      -8.339998     -3.291706     -6.926498
30
Coordinates from ORCA-job neb_149_405_CI_MEP.QMRegion E -2059.687525518479
  H      -6.137852     -1.531469     -3.405489
  O      -6.232537     -2.183679     -2.687135
  H      -7.006765     -1.904920     -2.147085
  H      -5.126301     -0.027719     -4.759462
  O      -5.705461     -0.759767     -5.049808
  H      -6.545934     -0.321804     -5.257662
  H      -7.379794      1.723188     -5.275008
  O      -7.973667      0.970008     -5.094853
  H      -8.862998      1.398096     -4.940463
  H      -4.084176     -3.124031     -4.882948
  O      -4.201723     -3.060882     -5.860994
  H      -4.588986     -2.183588     -5.985690
  H      -7.930629      0.072180     -1.949500
  O      -7.418919      0.788761     -2.351954
  H      -7.643541      0.821837     -3.302381
  H      -6.960362     -3.544141     -3.541949
  O      -7.557595     -4.217808     -3.936899
  H      -6.999754     -4.721255     -4.571638
  H     -10.153063      3.132272     -4.837112
  O     -10.263675      2.199486     -4.588538
  H     -10.425074      2.283249     -3.622774
  H      -5.177193     -5.918346     -5.442068
  O      -5.861569     -5.318570     -5.783262
  H      -5.358189     -4.506225     -5.988508
  H      -9.011505     -3.151821     -3.921062
  O      -9.660344     -2.461010     -3.668810
  H      -9.726708     -1.909742     -4.457364
  S      -9.230119     -1.630443     -7.027851
  H      -8.667921     -0.446585     -6.701343
  H      -8.077401     -2.303199     -6.820845
