42
Coordinates from ORCA-job neb_80_169_CI_MEP.QMRegion E -2345.039628588788
  H      -1.610425     -0.859250     -4.602238
  O      -1.108010     -0.616751     -5.407535
  H      -0.368923     -0.081677     -5.086905
  H      -3.294087      1.553289     -4.118503
  O      -4.163890      1.107505     -3.934970
  H      -4.373380      1.251931     -2.971107
  H      -1.124695      1.566147     -3.919319
  O      -1.792157      2.174527     -4.298822
  H      -1.445425      2.520785     -5.148308
  H      -5.102701      5.768693     -5.597674
  O      -4.507139      4.990777     -5.653369
  H      -3.734013      5.231305     -6.194163
  H      -5.898116      4.691692     -2.972027
  O      -6.819589      4.582444     -3.303832
  H      -6.712367      3.877791     -3.975735
  H      -5.491800      3.445768     -5.663415
  O      -6.002492      2.717364     -5.263803
  H      -5.323387      2.198204     -4.779765
  H      -5.215366     -0.167191     -4.658954
  O      -5.808164     -0.885538     -4.945348
  H      -6.673423     -0.456068     -5.082352
  H      -7.498079      1.536414     -5.271732
  O      -8.014661      0.769264     -4.979032
  H      -8.927893      1.142178     -4.801371
  H      -4.083038     -3.155567     -4.862207
  O      -4.211335     -3.050207     -5.837530
  H      -4.758988     -2.253574     -5.895476
  H     -10.211304      2.759088     -5.008489
  O     -10.296661      1.945373     -4.492483
  H     -10.418586      2.277102     -3.570092
  H      -1.348166      3.714966     -7.115427
  O      -0.869591      2.936688     -6.791233
  H      -1.052947      2.153918     -7.375188
  H      -0.093028      0.356043     -8.260227
  O      -1.017535      0.574582     -8.039028
  H      -1.210952      0.046490     -7.245520
  H      -9.752819      5.855902     -4.614131
  O     -10.267290      5.041459     -4.421315
  H     -11.164319      5.271196     -4.676191
  S      -8.881077      3.232189     -7.624871
  H      -7.671055      2.644866     -7.503769
  H      -8.398476      4.427030     -7.232239
42
Coordinates from ORCA-job neb_80_169_CI_MEP.QMRegion E -2345.037643548875
  H      -1.618866     -0.854432     -4.609152
  O      -1.109682     -0.612273     -5.410411
  H      -0.373418     -0.077233     -5.082944
  H      -3.312978      1.545325     -4.108104
  O      -4.176525      1.087791     -3.925987
  H      -4.383479      1.226946     -2.960177
  H      -1.137847      1.561056     -3.898923
  O      -1.807902      2.165763     -4.280785
  H      -1.449496      2.536534     -5.115099
  H      -5.113749      5.778169     -5.556006
  O      -4.509930      5.004977     -5.624055
  H      -3.740176      5.256613     -6.161967
  H      -5.910341      4.710473     -2.933198
  O      -6.830630      4.605915     -3.269831
  H      -6.721489      3.889261     -3.931146
  H      -5.484267      3.463975     -5.579640
  O      -6.014366      2.747182     -5.184347
  H      -5.352212      2.208792     -4.699704
  H      -5.238165     -0.164274     -4.675924
  O      -5.828303     -0.885895     -4.959956
  H      -6.694443     -0.460266     -5.100436
  H      -7.530226      1.520371     -5.339478
  O      -8.037019      0.773879     -4.984271
  H      -8.946733      1.151683     -4.827677
  H      -4.087975     -3.141903     -4.876896
  O      -4.213068     -3.042474     -5.852409
  H      -4.764254     -2.248945     -5.919340
  H     -10.262663      2.855260     -4.946882
  O     -10.331438      1.993503     -4.512392
  H     -10.450987      2.255959     -3.568430
  H      -1.336344      3.760764     -7.053963
  O      -0.856856      2.978307     -6.737591
  H      -1.051704      2.201228     -7.324114
  H      -0.098337      0.409775     -8.237717
  O      -1.018185      0.635052     -8.005530
  H      -1.210767      0.097564     -7.217561
  H      -9.760124      5.842744     -4.614432
  O     -10.286754      5.037767     -4.414426
  H     -11.188194      5.292892     -4.629131
  S      -7.983142      2.578762     -8.300292
  H      -6.705725      2.200003     -8.081826
  H      -7.746141      3.816337     -7.821740
42
Coordinates from ORCA-job neb_80_169_CI_MEP.QMRegion E -2345.036584498897
  H      -1.616086     -0.854103     -4.604538
  O      -1.105611     -0.611663     -5.404919
  H      -0.368957     -0.078046     -5.075895
  H      -3.306819      1.550707     -4.105018
  O      -4.171465      1.095688     -3.922780
  H      -4.378157      1.233184     -2.956219
  H      -1.134604      1.564055     -3.902846
  O      -1.803586      2.170397     -4.283726
  H      -1.447859      2.536198     -5.121382
  H      -5.110889      5.777810     -5.560005
  O      -4.507889      5.004010     -5.624775
  H      -3.736700      5.253835     -6.161953
  H      -5.912030      4.723009     -2.922924
  O      -6.831061      4.615238     -3.260963
  H      -6.715635      3.896974     -3.920424
  H      -5.486660      3.464644     -5.569937
  O      -6.014222      2.754989     -5.159736
  H      -5.346727      2.214719     -4.683119
  H      -5.230135     -0.161576     -4.667187
  O      -5.818576     -0.883342     -4.954061
  H      -6.682422     -0.457307     -5.105238
  H      -7.491273      1.530582     -5.306892
  O      -8.021880      0.787760     -4.976935
  H      -8.926098      1.176171     -4.817869
  H      -4.086945     -3.145117     -4.874471
  O      -4.214026     -3.042248     -5.849414
  H      -4.764067     -2.247227     -5.910905
  H     -10.248530      2.880246     -4.943197
  O     -10.312807      2.013475     -4.518515
  H     -10.440951      2.267185     -3.572754
  H      -1.338399      3.754865     -7.066204
  O      -0.859576      2.973272     -6.747423
  H      -1.050734      2.194141     -7.332766
  H      -0.095194      0.400490     -8.238838
  O      -1.015292      0.623094     -8.004304
  H      -1.202163      0.089619     -7.212157
  H      -9.753498      5.847172     -4.613286
  O     -10.282523      5.043034     -4.412223
  H     -11.181855      5.299044     -4.631988
  S      -7.309599      2.112796     -8.664070
  H      -6.001069      1.944997     -8.380777
  H      -7.339421      3.311049     -8.049555
42
Coordinates from ORCA-job neb_80_169_CI_MEP.QMRegion E -2345.036507769992
  H      -1.611237     -0.855651     -4.602174
  O      -1.100493     -0.612501     -5.401863
  H      -0.363393     -0.079474     -5.072636
  H      -3.304665      1.550769     -4.106581
  O      -4.172277      1.099792     -3.923663
  H      -4.375637      1.234601     -2.955867
  H      -1.134534      1.562595     -3.903933
  O      -1.804538      2.168148     -4.284339
  H      -1.448606      2.535749     -5.121543
  H      -5.108867      5.769011     -5.563217
  O      -4.507018      4.993914     -5.616860
  H      -3.739088      5.235762     -6.162694
  H      -5.906694      4.728672     -2.917475
  O      -6.827545      4.618631     -3.251934
  H      -6.714258      3.902777     -3.912275
  H      -5.497563      3.464842     -5.573455
  O      -6.017593      2.746991     -5.165119
  H      -5.344855      2.214041     -4.685631
  H      -5.226175     -0.160407     -4.663749
  O      -5.817288     -0.879563     -4.952400
  H      -6.678870     -0.450802     -5.104959
  H      -7.474420      1.566886     -5.242814
  O      -8.020867      0.806381     -4.984256
  H      -8.925939      1.191748     -4.814552
  H      -4.085382     -3.146408     -4.872995
  O      -4.212528     -3.043723     -5.848078
  H      -4.762581     -2.249299     -5.911411
  H     -10.245022      2.893224     -4.937152
  O     -10.307124      2.023288     -4.517995
  H     -10.439124      2.271922     -3.570784
  H      -1.335104      3.757178     -7.063881
  O      -0.858013      2.974771     -6.743729
  H      -1.047586      2.196230     -7.330155
  H      -0.091894      0.400358     -8.238347
  O      -1.010843      0.622173     -7.998213
  H      -1.191753      0.089481     -7.204187
  H      -9.750238      5.849382     -4.611119
  O     -10.281748      5.047414     -4.405564
  H     -11.180635      5.306850     -4.623213
  S      -6.477043      2.078365     -9.155565
  H      -5.403125      1.651267     -8.459209
  H      -7.030600      2.616948     -8.050551
42
Coordinates from ORCA-job neb_80_169_CI_MEP.QMRegion E -2345.036656982204
  H      -1.608186     -0.854145     -4.599635
  O      -1.094928     -0.613716     -5.398660
  H      -0.358182     -0.080401     -5.068839
  H      -3.300568      1.546354     -4.107484
  O      -4.166182      1.092020     -3.922333
  H      -4.370418      1.230310     -2.955196
  H      -1.132332      1.561536     -3.902084
  O      -1.803198      2.165594     -4.283126
  H      -1.445740      2.537418     -5.117530
  H      -5.103298      5.759650     -5.558672
  O      -4.498753      4.987213     -5.603168
  H      -3.737899      5.228705     -6.157622
  H      -5.904461      4.735424     -2.911636
  O      -6.825351      4.621837     -3.244681
  H      -6.703947      3.908305     -3.907626
  H      -5.545832      3.418984     -5.618850
  O      -6.039203      2.739259     -5.124649
  H      -5.340544      2.223946     -4.665803
  H      -5.222344     -0.159439     -4.663096
  O      -5.819450     -0.873748     -4.953456
  H      -6.681139     -0.438652     -5.089690
  H      -7.459043      1.583450     -5.212888
  O      -8.016879      0.815793     -4.992309
  H      -8.921484      1.201817     -4.818562
  H      -4.081093     -3.147489     -4.870345
  O      -4.211041     -3.042770     -5.845395
  H      -4.760846     -2.248088     -5.904996
  H     -10.230789      2.908744     -4.932620
  O     -10.301442      2.034856     -4.522276
  H     -10.437570      2.276564     -3.573781
  H      -1.332023      3.763028     -7.053156
  O      -0.851741      2.979726     -6.738522
  H      -1.045788      2.203024     -7.324203
  H      -0.091305      0.400544     -8.235469
  O      -1.010049      0.620303     -7.991995
  H      -1.183516      0.092771     -7.192571
  H      -9.742889      5.848703     -4.605847
  O     -10.278708      5.050233     -4.396750
  H     -11.176379      5.314052     -4.613821
  S      -5.902585      2.342047     -8.876474
  H      -4.854293      1.519597     -8.656061
  H      -6.684348      1.648591     -8.018950
42
Coordinates from ORCA-job neb_80_169_CI_MEP.QMRegion E -2345.037709721820
  H      -1.602954     -0.853900     -4.594278
  O      -1.085992     -0.615372     -5.391708
  H      -0.349712     -0.082560     -5.059898
  H      -3.296663      1.543006     -4.106777
  O      -4.161177      1.086845     -3.920255
  H      -4.366794      1.227635     -2.953679
  H      -1.130554      1.560483     -3.895635
  O      -1.800455      2.164205     -4.279006
  H      -1.439212      2.539063     -5.110190
  H      -5.096320      5.760181     -5.552919
  O      -4.495379      4.985550     -5.599420
  H      -3.734014      5.224100     -6.153793
  H      -5.906055      4.741486     -2.904364
  O      -6.824733      4.624199     -3.241063
  H      -6.693835      3.908563     -3.901638
  H      -5.547387      3.395486     -5.624493
  O      -6.042826      2.744051     -5.096995
  H      -5.340392      2.219842     -4.654800
  H      -5.215191     -0.161395     -4.661891
  O      -5.814241     -0.872076     -4.958245
  H      -6.677055     -0.434381     -5.083987
  H      -7.438635      1.580851     -5.220574
  O      -8.001337      0.816867     -4.995769
  H      -8.903916      1.209691     -4.828780
  H      -4.076509     -3.150778     -4.868692
  O      -4.207080     -3.044725     -5.843863
  H      -4.753277     -2.247533     -5.901685
  H     -10.208533      2.928592     -4.927465
  O     -10.281026      2.049299     -4.528694
  H     -10.423906      2.279458     -3.578700
  H      -1.328846      3.767242     -7.041475
  O      -0.843281      2.986180     -6.728838
  H      -1.040633      2.208572     -7.310973
  H      -0.089759      0.406026     -8.229998
  O      -1.007314      0.623404     -7.979063
  H      -1.171118      0.098795     -7.175123
  H      -9.734833      5.849084     -4.597700
  O     -10.272379      5.052444     -4.386231
  H     -11.170134      5.319131     -4.599129
  S      -5.321657      2.025960     -8.521887
  H      -4.189900      1.315059     -8.708403
  H      -5.891806      1.027107     -7.812606
42
Coordinates from ORCA-job neb_80_169_CI_MEP.QMRegion E -2345.040738323470
  H      -1.618082     -0.843645     -4.604605
  O      -1.092513     -0.608693     -5.397542
  H      -0.358884     -0.076633     -5.058324
  H      -3.324563      1.551468     -4.122013
  O      -4.183126      1.089010     -3.927376
  H      -4.381529      1.232115     -2.960175
  H      -1.141746      1.567654     -3.909695
  O      -1.817891      2.167652     -4.285193
  H      -1.468592      2.546045     -5.119615
  H      -5.106460      5.766297     -5.565040
  O      -4.508542      4.989168     -5.614096
  H      -3.745713      5.223180     -6.168340
  H      -5.908663      4.735136     -2.922878
  O      -6.830910      4.626189     -3.252530
  H      -6.714922      3.922046     -3.927132
  H      -5.535826      3.427137     -5.630652
  O      -6.051429      2.757405     -5.145539
  H      -5.366157      2.232030     -4.680026
  H      -5.227513     -0.150493     -4.658128
  O      -5.822468     -0.858474     -4.972349
  H      -6.684655     -0.421618     -5.107461
  H      -7.447131      1.582383     -5.254071
  O      -8.009877      0.830773     -4.993641
  H      -8.909239      1.235448     -4.844127
  H      -4.084810     -3.140349     -4.870337
  O      -4.218226     -3.033360     -5.844877
  H      -4.781115     -2.247232     -5.898511
  H     -10.213562      2.986014     -4.937951
  O     -10.284645      2.097306     -4.559125
  H     -10.430292      2.304624     -3.605332
  H      -1.339124      3.782218     -7.032996
  O      -0.845438      3.000413     -6.733029
  H      -1.068374      2.229754     -7.308763
  H      -0.089288      0.394656     -8.232395
  O      -1.006015      0.611472     -7.978277
  H      -1.161778      0.108480     -7.158155
  H      -9.756999      5.871556     -4.605182
  O     -10.300334      5.080383     -4.386799
  H     -11.198048      5.355188     -4.589463
  S      -4.427027      1.479246     -7.979737
  H      -3.312585      0.874827     -8.443504
  H      -4.756934      0.408616     -7.222390
