24
Coordinates from ORCA-job neb_129_476_CI_MEP.QMRegion E -1917.014192819107
  H       7.521874     -0.496011      3.122858
  O       6.779538      0.089680      3.294762
  H       6.096764     -0.537057      3.653524
  H       7.542988     -2.611470      4.275134
  O       7.758703     -2.639718      3.325398
  H       7.231579     -3.403566      3.022709
  H       6.639937     -5.965849      2.695440
  O       6.739971     -5.273421      3.384056
  H       7.582809     -5.428024      3.842721
  H       9.304605      0.220439     -1.118933
  O       8.637106      0.482694     -0.477307
  H       8.315178     -0.364386     -0.130369
  H       7.943670     -3.117887      0.339513
  O       8.406043     -2.262027      0.484728
  H       8.521701     -2.237388      1.442434
  H       9.215673     -4.078768      4.171679
  O       9.099688     -4.760433      4.850709
  H       8.609690     -4.280348      5.536630
  H       9.676138     -2.258584     -1.099633
  O       9.920316     -1.941381     -1.982668
  H       9.054559     -1.694753     -2.377267
  S      11.971916     -6.338996      5.991306
  H      10.979528     -5.510169      5.597846
  H      11.220498     -7.426619      5.726645
24
Coordinates from ORCA-job neb_129_476_CI_MEP.QMRegion E -1917.013026137584
  H       7.514865     -0.490293      3.144118
  O       6.767267      0.091793      3.300688
  H       6.084221     -0.536342      3.658134
  H       7.476581     -2.647080      4.302842
  O       7.681743     -2.664299      3.347861
  H       7.149153     -3.422480      3.038930
  H       6.621402     -5.993790      2.690266
  O       6.723330     -5.306974      3.384855
  H       7.576470     -5.456230      3.827205
  H       9.292150      0.222266     -1.044922
  O       8.610645      0.485916     -0.418990
  H       8.280446     -0.360828     -0.078458
  H       7.930110     -3.118352      0.366404
  O       8.379929     -2.259874      0.532352
  H       8.475884     -2.249468      1.492654
  H       9.035331     -4.013326      4.098119
  O       9.119533     -4.750817      4.726116
  H       8.716273     -4.378359      5.523203
  H       9.658479     -2.252761     -1.070935
  O       9.907503     -1.933481     -1.951485
  H       9.045912     -1.685405     -2.353582
  S      12.510566     -5.623549      4.993746
  H      11.469825     -4.807968      4.727781
  H      11.667891     -6.632636      5.292471
24
Coordinates from ORCA-job neb_129_476_CI_MEP.QMRegion E -1917.012248388762
  H       7.520616     -0.504243      3.135975
  O       6.775657      0.080195      3.298332
  H       6.092907     -0.546645      3.658820
  H       7.522571     -2.660585      4.298549
  O       7.722768     -2.680085      3.343276
  H       7.194235     -3.444392      3.041466
  H       6.627842     -5.994398      2.692278
  O       6.727744     -5.306536      3.385517
  H       7.573379     -5.462953      3.842939
  H       9.299128      0.213952     -1.051488
  O       8.617032      0.476819     -0.425772
  H       8.292498     -0.370457     -0.081039
  H       7.942761     -3.125210      0.363359
  O       8.401836     -2.271606      0.530014
  H       8.489529     -2.260092      1.491634
  H       9.110668     -4.106699      4.162034
  O       9.089106     -4.851817      4.782962
  H       8.673569     -4.447689      5.558041
  H       9.668070     -2.256112     -1.077107
  O       9.915562     -1.936430     -1.958068
  H       9.053318     -1.687864     -2.358375
  S      12.706252     -5.247325      4.546226
  H      11.758723     -4.583734      3.857381
  H      11.776310     -6.033071      5.120873
24
Coordinates from ORCA-job neb_129_476_CI_MEP.QMRegion E -1917.012465093703
  H       7.524767     -0.499265      3.129127
  O       6.778226      0.081492      3.296792
  H       6.096979     -0.547660      3.655630
  H       7.533826     -2.657840      4.280856
  O       7.727774     -2.683514      3.325835
  H       7.224515     -3.470100      3.038842
  H       6.654460     -6.002397      2.697939
  O       6.759673     -5.320008      3.396358
  H       7.595666     -5.492332      3.862528
  H       9.312093      0.226364     -1.057600
  O       8.623389      0.477273     -0.434408
  H       8.310243     -0.375105     -0.091745
  H       7.953293     -3.124639      0.354457
  O       8.418735     -2.275213      0.524331
  H       8.487277     -2.259635      1.487850
  H       9.193062     -4.125708      4.210678
  O       9.111365     -4.819432      4.881222
  H       8.626170     -4.356647      5.580812
  H       9.681432     -2.254648     -1.085517
  O       9.922576     -1.933662     -1.967594
  H       9.057554     -1.684357     -2.361536
  S      12.649890     -4.987398      3.903932
  H      11.646638     -4.368959      3.251018
  H      11.854373     -5.241663      4.959876
24
Coordinates from ORCA-job neb_129_476_CI_MEP.QMRegion E -1917.012549754630
  H       7.510333     -0.511609      3.123982
  O       6.774059      0.080244      3.299805
  H       6.092602     -0.550313      3.659015
  H       7.563511     -2.668927      4.261292
  O       7.670119     -2.660509      3.295016
  H       7.219651     -3.487737      3.035624
  H       6.659735     -5.998086      2.711872
  O       6.753365     -5.306175      3.399970
  H       7.571338     -5.480598      3.903282
  H       9.309474      0.205304     -1.044743
  O       8.619075      0.459558     -0.424833
  H       8.311346     -0.391581     -0.072981
  H       7.962993     -3.137620      0.363534
  O       8.436827     -2.295294      0.546866
  H       8.467063     -2.282985      1.514337
  H       9.531366     -4.602308      4.440486
  O       8.954857     -5.043407      5.077846
  H       8.509796     -4.315917      5.540739
  H       9.676026     -2.267115     -1.072208
  O       9.918565     -1.945583     -1.954035
  H       9.054764     -1.694868     -2.349675
  S      12.197818     -5.003664      3.499706
  H      11.681282     -3.903687      2.912756
  H      12.150965     -4.445563      4.730012
24
Coordinates from ORCA-job neb_129_476_CI_MEP.QMRegion E -1917.013491189811
  H       7.473429     -0.418516      3.110918
  O       6.727449      0.155846      3.299249
  H       6.057202     -0.498465      3.638997
  H       7.504798     -2.564296      4.167633
  O       7.526586     -2.509633      3.199660
  H       7.068593     -3.332590      2.939528
  H       6.613374     -5.878585      2.677727
  O       6.672888     -5.158034      3.336604
  H       7.521616     -5.261130      3.816940
  H       9.289124      0.338765     -1.138474
  O       8.650041      0.577445     -0.459913
  H       8.302480     -0.279093     -0.163036
  H       7.918801     -3.054962      0.288708
  O       8.348319     -2.188282      0.459901
  H       8.333608     -2.142541      1.427434
  H       9.585432     -4.611291      4.444160
  O       8.849556     -4.977724      4.960804
  H       8.472710     -4.224003      5.441523
  H       9.671797     -2.131461     -1.114281
  O       9.926823     -1.846890     -2.004592
  H       9.061687     -1.617926     -2.413120
  S      11.732449     -4.471830      3.321483
  H      11.395579     -3.488590      2.463481
  H      12.179086     -3.599845      4.245767
24
Coordinates from ORCA-job neb_129_476_CI_MEP.QMRegion E -1917.018025408117
  H       7.572536     -0.340406      3.174272
  O       6.764441      0.155941      3.313672
  H       6.131702     -0.539177      3.642479
  H       7.484983     -2.602183      4.217985
  O       7.433644     -2.556134      3.249217
  H       7.054631     -3.430169      3.028272
  H       6.695303     -5.935265      2.711488
  O       6.770627     -5.233220      3.388470
  H       7.646518     -5.308271      3.818697
  H       9.346236      0.259095     -1.038355
  O       8.658993      0.497576     -0.408233
  H       8.364145     -0.359277     -0.061872
  H       7.982333     -3.135436      0.411873
  O       8.438164     -2.297634      0.655861
  H       8.225765     -2.226855      1.604735
  H       9.689472     -4.300204      4.297155
  O       9.095043     -4.829659      4.855291
  H       8.654031     -4.182052      5.425203
  H       9.711163     -2.223663     -1.086940
  O       9.926830     -1.898801     -1.970885
  H       9.052069     -1.662773     -2.354561
  S      11.263881     -3.338922      2.562827
  H      10.283880     -3.081390      1.663491
  H      11.334144     -2.041635      2.929856
