21
Coordinates from ORCA-job neb_30_126_CI_MEP.QMRegion E -1845.680553289141
  H      -3.964921      1.169482      6.934369
  O      -3.777040      1.667586      7.772064
  H      -4.660234      2.049424      8.029219
  H      -0.535329      2.151010      7.645091
  O      -1.131308      1.980722      6.898129
  H      -2.017554      1.915652      7.272935
  H      -2.452716      3.125134     10.487586
  O      -2.256197      2.196217     10.249437
  H      -2.847309      2.005447      9.504351
  H       0.034286      3.413521      8.942647
  O       0.300769      2.511997      9.222535
  H      -0.473915      2.239280      9.750772
  H       0.777175      0.405416      8.463369
  O       0.802857     -0.521468      8.205230
  H      -0.133491     -0.756879      8.088496
  H      -2.575659     -1.653585      7.593706
  O      -2.029275     -0.871888      7.795249
  H      -2.627053     -0.292856      8.277146
  S      -2.354071     -0.118826     12.821509
  H      -2.523184      0.843975     11.886059
  H      -1.159729     -0.471616     12.300766
21
Coordinates from ORCA-job neb_30_126_CI_MEP.QMRegion E -1845.680103305810
  H      -3.963570      1.185483      6.931465
  O      -3.776572      1.679946      7.771799
  H      -4.660000      2.060080      8.031027
  H      -0.506978      2.124478      7.653892
  O      -1.116049      1.994101      6.910367
  H      -1.999109      1.950411      7.295187
  H      -2.485344      3.102729     10.532236
  O      -2.287294      2.171741     10.305683
  H      -2.860708      1.981180      9.547667
  H       0.011966      3.421578      8.974303
  O       0.277373      2.529763      9.284958
  H      -0.514583      2.263885      9.792147
  H       0.746208      0.349184      8.653890
  O       0.733851     -0.502005      8.204256
  H      -0.210468     -0.704464      8.098088
  H      -2.609209     -1.622230      7.581685
  O      -2.082581     -0.819563      7.746882
  H      -2.689388     -0.237311      8.213812
  S      -2.028734     -0.738207     12.260633
  H      -2.543855      0.350116     11.651076
  H      -0.776020     -0.250684     12.141173
21
Coordinates from ORCA-job neb_30_126_CI_MEP.QMRegion E -1845.679467503922
  H      -3.951746      1.194370      6.919699
  O      -3.765125      1.678460      7.766551
  H      -4.649023      2.051201      8.031666
  H      -0.440439      2.060198      7.641532
  O      -1.082550      1.996388      6.916394
  H      -1.952661      1.975664      7.328509
  H      -2.469034      3.091294     10.534788
  O      -2.269996      2.159596     10.314096
  H      -2.835732      1.970013      9.550602
  H       0.023598      3.430236      8.976027
  O       0.307180      2.553380      9.310255
  H      -0.489482      2.273886      9.800126
  H       0.817195      0.171736      8.878306
  O       0.727681     -0.447444      8.152964
  H      -0.219814     -0.662096      8.106499
  H      -2.593436     -1.630221      7.586105
  O      -2.065012     -0.828345      7.746588
  H      -2.686863     -0.215202      8.150222
  S      -1.813345     -0.872675     12.092745
  H      -2.528286      0.124625     11.534023
  H      -0.741911     -0.064045     12.231833
21
Coordinates from ORCA-job neb_30_126_CI_MEP.QMRegion E -1845.679936608321
  H      -3.953534      1.195610      6.916418
  O      -3.767743      1.676519      7.765038
  H      -4.651591      2.048616      8.030481
  H      -0.426589      2.021956      7.631547
  O      -1.082131      1.997439      6.915471
  H      -1.946564      1.980604      7.338369
  H      -2.477781      3.085321     10.531738
  O      -2.285773      2.152017     10.313006
  H      -2.847997      1.966809      9.545991
  H       0.012897      3.438252      8.979483
  O       0.313271      2.571812      9.324444
  H      -0.482614      2.273372      9.800986
  H       0.855790      0.018832      8.954975
  O       0.693418     -0.345211      8.085327
  H      -0.236295     -0.631654      8.082897
  H      -2.601224     -1.634080      7.591229
  O      -2.068953     -0.836087      7.757914
  H      -2.692770     -0.212684      8.142815
  S      -1.817201     -0.871275     12.079694
  H      -2.533358      0.126757     11.523135
  H      -0.758865     -0.051991     12.252378
21
Coordinates from ORCA-job neb_30_126_CI_MEP.QMRegion E -1845.680240879489
  H      -3.952087      1.184105      6.889675
  O      -3.769392      1.662691      7.741802
  H      -4.654070      2.029944      8.006736
  H      -0.416152      1.973858      7.602272
  O      -1.081034      1.983672      6.893166
  H      -1.943577      1.957632      7.318910
  H      -2.490751      3.048893     10.482264
  O      -2.302029      2.117832     10.259459
  H      -2.863427      1.934976      9.490051
  H      -0.001582      3.419116      8.948981
  O       0.317289      2.555267      9.282786
  H      -0.470201      2.228405      9.751047
  H       0.895537     -0.210936      8.943938
  O       0.665406     -0.306415      8.022648
  H      -0.248701     -0.646129      8.006041
  H      -2.595259     -1.662218      7.543530
  O      -2.061696     -0.862146      7.698032
  H      -2.683991     -0.238045      8.083703
  S      -1.795866     -0.935129     11.967251
  H      -2.542511      0.051561     11.430729
  H      -0.783958     -0.075320     12.207317
21
Coordinates from ORCA-job neb_30_126_CI_MEP.QMRegion E -1845.680694964072
  H      -3.956963      1.191889      6.876937
  O      -3.771541      1.664075      7.732269
  H      -4.655543      2.028775      8.003034
  H      -0.403813      1.978048      7.599119
  O      -1.073201      1.976658      6.891337
  H      -1.932664      1.962618      7.322165
  H      -2.488626      3.031617     10.447707
  O      -2.300663      2.102228     10.220914
  H      -2.868745      1.920534      9.456780
  H      -0.008882      3.418721      8.942558
  O       0.328551      2.552837      9.249898
  H      -0.445939      2.192626      9.713130
  H       0.932420     -0.484959      8.928267
  O       0.665275     -0.318208      8.024260
  H      -0.249697     -0.650211      7.959491
  H      -2.593667     -1.668254      7.522633
  O      -2.054760     -0.871082      7.672857
  H      -2.680294     -0.225975      8.016593
  S      -1.630395     -1.050430     11.778504
  H      -2.532695     -0.252274     11.174429
  H      -0.888023      0.018493     12.134066
21
Coordinates from ORCA-job neb_30_126_CI_MEP.QMRegion E -1845.686699183583
  H      -3.988296      1.193125      6.896233
  O      -3.789866      1.646091      7.756453
  H      -4.669093      2.025084      8.029339
  H      -0.463772      2.015708      7.658488
  O      -1.114730      1.956273      6.933633
  H      -1.981147      1.959379      7.354370
  H      -2.564597      3.050383     10.553530
  O      -2.395798      2.104894     10.379800
  H      -2.987306      1.880368      9.648730
  H      -0.090840      3.442927      9.008228
  O       0.255453      2.576488      9.304747
  H      -0.492325      2.214021      9.804917
  H       0.903177     -0.481490      8.999987
  O       0.710222     -0.310987      8.075031
  H      -0.222977     -0.561063      7.983982
  H      -2.669873     -1.659488      7.705091
  O      -2.140081     -0.897741      8.009429
  H      -2.783553     -0.184943      8.110710
  S      -0.868072     -1.004671     11.223184
  H      -1.558435     -1.240913     10.081162
  H      -1.457036      0.201018     11.363803
