21
Coordinates from ORCA-job neb_105_429_CI_MEP.QMRegion E -1845.692205507966
  H      -3.544407      6.396170     -0.487643
  O      -3.321972      7.076068     -1.184828
  H      -3.299086      7.935201     -0.721076
  H      -0.317954      6.913289     -2.268505
  O      -1.095075      7.343576     -2.722243
  H      -1.846946      7.154898     -2.107484
  H      -0.632578      9.001398     -1.998815
  O      -0.501683      9.776863     -1.414769
  H       0.263121      9.513253     -0.862999
  H      -1.886684      9.745577     -0.558620
  O      -2.782356      9.555618     -0.153905
  H      -3.216162     10.391606      0.029282
  H      -2.260437      9.096455     -5.234014
  O      -2.314375      8.131499     -5.178684
  H      -1.679043      7.908706     -4.477036
  H      -3.835242      8.112272     -4.113401
  O      -4.577865      8.283967     -3.494253
  H      -4.321447      7.856226     -2.661324
  S      -2.796265     11.266119     -3.976547
  H      -1.838441     11.025542     -3.057241
  H      -3.638564     10.346047     -3.440608
21
Coordinates from ORCA-job neb_105_429_CI_MEP.QMRegion E -1845.681802549004
  H      -3.507960      6.308540     -0.540518
  O      -3.266032      6.948788     -1.266690
  H      -3.203797      7.831370     -0.843180
  H      -0.292286      6.851552     -2.313972
  O      -1.068815      7.275742     -2.775011
  H      -1.828623      7.058387     -2.173417
  H      -0.574282      8.895937     -2.149577
  O      -0.446004      9.687701     -1.583676
  H       0.298761      9.431663     -1.002266
  H      -1.812311      9.568863     -0.734633
  O      -2.694280      9.373791     -0.294883
  H      -3.249122     10.148706     -0.393776
  H      -2.296021      9.509923     -4.765589
  O      -2.365737      8.566531     -4.949739
  H      -1.719131      8.156799     -4.350101
  H      -3.966166      8.354580     -3.997962
  O      -4.741192      8.320332     -3.402404
  H      -4.442048      7.806246     -2.638384
  S      -3.166349     11.862924     -3.390431
  H      -2.043526     11.683573     -2.671748
  H      -3.949373     11.713975     -2.304783
21
Coordinates from ORCA-job neb_105_429_CI_MEP.QMRegion E -1845.681761481641
  H      -3.514443      6.339309     -0.554180
  O      -3.275908      6.976829     -1.281617
  H      -3.173123      7.861460     -0.855687
  H      -0.296082      6.831280     -2.321951
  O      -1.069412      7.254991     -2.790068
  H      -1.833969      7.055080     -2.186671
  H      -0.540640      8.854963     -2.178392
  O      -0.402787      9.679384     -1.666328
  H       0.332686      9.447950     -1.066394
  H      -1.797023      9.562562     -0.759829
  O      -2.678933      9.391444     -0.329004
  H      -3.245617     10.126166     -0.604979
  H      -1.913175      9.756185     -4.395830
  O      -2.274442      8.933475     -4.735576
  H      -1.702582      8.266452     -4.320437
  H      -3.983743      8.546653     -3.929123
  O      -4.776534      8.380458     -3.389565
  H      -4.456300      7.878180     -2.624720
  S      -4.050308     11.828892     -2.261031
  H      -2.978488     11.572728     -3.038136
  H      -3.450471     12.908890     -1.722131
21
Coordinates from ORCA-job neb_105_429_CI_MEP.QMRegion E -1845.680995188960
  H      -3.534683      6.378815     -0.521364
  O      -3.306712      7.023780     -1.245653
  H      -3.190429      7.901509     -0.811267
  H      -0.317146      6.840807     -2.296971
  O      -1.081911      7.271590     -2.771245
  H      -1.848073      7.085648     -2.169523
  H      -0.554312      8.838133     -2.114534
  O      -0.418690      9.682906     -1.631272
  H       0.327642      9.478059     -1.035212
  H      -1.804458      9.605487     -0.706010
  O      -2.687515      9.439837     -0.278338
  H      -3.241426     10.196689     -0.519622
  H      -1.838947      9.928246     -3.770238
  O      -2.302924      9.376067     -4.409321
  H      -1.776243      8.565036     -4.391230
  H      -4.043801      8.718149     -3.746372
  O      -4.845559      8.410456     -3.292649
  H      -4.516721      7.909296     -2.529227
  S      -4.163355     12.008170     -1.923249
  H      -3.473087     11.682849     -3.035536
  H      -3.298553     12.990926     -1.600172
21
Coordinates from ORCA-job neb_105_429_CI_MEP.QMRegion E -1845.680965398865
  H      -3.571107      6.394469     -0.492805
  O      -3.362840      7.051145     -1.212609
  H      -3.244397      7.922099     -0.767446
  H      -0.358616      6.835480     -2.257728
  O      -1.118474      7.275136     -2.728958
  H      -1.888241      7.090535     -2.133919
  H      -0.610513      8.790710     -2.049730
  O      -0.480412      9.653786     -1.587585
  H       0.284702      9.482196     -1.005774
  H      -1.858493      9.620897     -0.650066
  O      -2.742194      9.463175     -0.224033
  H      -3.287145     10.236963     -0.431936
  H      -1.867813     10.002087     -3.296769
  O      -2.461716      9.777138     -4.024606
  H      -1.925246      9.178311     -4.555509
  H      -4.135498      8.808583     -3.551720
  O      -4.940154      8.408098     -3.188426
  H      -4.623070      7.895334     -2.426292
  S      -4.254406     12.070512     -1.741997
  H      -3.803734     11.607365     -2.927118
  H      -3.239424     12.950302     -1.622431
21
Coordinates from ORCA-job neb_105_429_CI_MEP.QMRegion E -1845.681333646998
  H      -3.560807      6.430251     -0.490857
  O      -3.347838      7.090781     -1.204296
  H      -3.219935      7.957880     -0.753466
  H      -0.346370      6.897590     -2.271521
  O      -1.111266      7.328877     -2.740412
  H      -1.871782      7.139662     -2.135691
  H      -0.536955      8.896774     -1.980910
  O      -0.406617      9.741470     -1.501591
  H       0.341447      9.527999     -0.909273
  H      -1.811291      9.686805     -0.612908
  O      -2.702262      9.505543     -0.209182
  H      -3.243115     10.289929     -0.388538
  H      -1.746998      9.404787     -3.623782
  O      -2.470221      9.779527     -4.143604
  H      -2.090084      9.903733     -5.017937
  H      -4.126838      8.773841     -3.680224
  O      -4.905886      8.408778     -3.236389
  H      -4.551375      7.925160     -2.471405
  S      -4.076503     12.109406     -1.817912
  H      -3.389671     11.518954     -2.822118
  H      -3.082222     12.982927     -1.560904
21
Coordinates from ORCA-job neb_105_429_CI_MEP.QMRegion E -1845.682398648271
  H      -3.557988      6.406988     -0.474107
  O      -3.344228      7.069383     -1.186959
  H      -3.206079      7.931721     -0.733367
  H      -0.352867      6.835084     -2.261399
  O      -1.114472      7.274933     -2.727615
  H      -1.875998      7.092830     -2.123732
  H      -0.602198      8.778610     -2.119514
  O      -0.451621      9.660725     -1.689871
  H       0.320173      9.507123     -1.114784
  H      -1.797282      9.640030     -0.648244
  O      -2.664675      9.477036     -0.200006
  H      -3.194753     10.285091     -0.301577
  H      -1.728227     10.245234     -3.165464
  O      -2.522691     10.294416     -3.720564
  H      -2.205104     10.613671     -4.570314
  H      -4.123733      8.829855     -3.517754
  O      -4.898678      8.374655     -3.166148
  H      -4.557723      7.878057     -2.401242
  S      -4.241339     12.142355     -1.359678
  H      -3.735234     11.571137     -2.481127
  H      -3.184035     12.970112     -1.235625
