48
Coordinates from ORCA-job neb_7_242_CI_MEP.QMRegion E -2487.686357485372
  H      -1.627675     -0.856795     -4.574473
  O      -1.115462     -0.625993     -5.378570
  H      -0.378639     -0.087652     -5.056886
  H      -3.314656      1.542406     -4.090159
  O      -4.180386      1.085943     -3.916187
  H      -4.395116      1.225949     -2.952115
  H      -1.151438      1.556977     -3.877792
  O      -1.817201      2.157993     -4.273693
  H      -1.449527      2.503774     -5.116356
  H      -5.102842      5.794902     -5.514123
  O      -4.526860      5.006612     -5.606559
  H      -3.746184      5.257013     -6.135859
  H      -5.914576      4.636638     -2.912039
  O      -6.829498      4.539550     -3.257987
  H      -6.709394      3.835934     -3.934474
  H      -5.470251      3.477165     -5.591004
  O      -5.979477      2.725592     -5.228129
  H      -5.316654      2.208402     -4.720304
  H      -5.224537     -0.192543     -4.674788
  O      -5.820729     -0.906834     -4.957981
  H      -6.673064     -0.475566     -5.131529
  H      -7.470742      1.570558     -5.255794
  O      -8.021117      0.819665     -4.979046
  H      -8.922297      1.212939     -4.809291
  H      -1.652335      6.221182     -6.976828
  O      -2.033665      5.382358     -6.702251
  H      -1.782903      5.286917     -5.733635
  H     -10.289749      2.895778     -4.888329
  O     -10.318971      2.014057     -4.487053
  H     -10.450365      2.245469     -3.537249
  H      -1.326355      3.674777     -7.070625
  O      -0.855224      2.899910     -6.722490
  H      -1.047044      2.114985     -7.292625
  H      -0.108955      0.327296     -8.226819
  O      -1.030671      0.530128     -7.977682
  H      -1.191159      0.014015     -7.167475
  H      -5.863866      7.442685     -4.181920
  O      -6.381352      6.824091     -4.738922
  H      -6.618450      6.081309     -4.131755
  H      -9.846229      5.750544     -4.641503
  O     -10.377789      4.951399     -4.427095
  H     -11.287119      5.217547     -4.585546
  H      -9.292237      8.018213     -4.489706
  O      -9.058121      7.313004     -5.100254
  H      -8.077492      7.258169     -5.034278
  S      -3.931668      2.359835     -8.799557
  H      -4.503898      1.881897     -7.673238
  H      -3.007536      1.374769     -8.813222
48
Coordinates from ORCA-job neb_7_242_CI_MEP.QMRegion E -2487.683033927299
  H      -1.615073     -0.861365     -4.578891
  O      -1.112687     -0.628068     -5.387594
  H      -0.372077     -0.090168     -5.074196
  H      -3.298462      1.532659     -4.092971
  O      -4.167346      1.081055     -3.916080
  H      -4.379806      1.220324     -2.951668
  H      -1.140664      1.550259     -3.877588
  O      -1.805208      2.153371     -4.273209
  H      -1.439704      2.490636     -5.120134
  H      -5.084847      5.791552     -5.502572
  O      -4.505372      5.004685     -5.585925
  H      -3.730766      5.251100     -6.123532
  H      -5.901858      4.639203     -2.890061
  O      -6.816530      4.542290     -3.238304
  H      -6.693831      3.832360     -3.907986
  H      -5.463330      3.467060     -5.564686
  O      -5.976221      2.723500     -5.190775
  H      -5.306396      2.196614     -4.700132
  H      -5.206768     -0.203014     -4.681045
  O      -5.806832     -0.916184     -4.958874
  H      -6.659422     -0.485205     -5.130158
  H      -7.456321      1.563987     -5.226065
  O      -8.009661      0.806105     -4.974804
  H      -8.912174      1.197429     -4.805595
  H      -1.611501      6.217065     -6.967261
  O      -2.000349      5.378069     -6.703556
  H      -1.763511      5.278891     -5.730551
  H     -10.252083      2.892799     -4.880239
  O     -10.300618      2.009489     -4.484234
  H     -10.440147      2.238317     -3.534919
  H      -1.293518      3.685126     -7.065133
  O      -0.852247      2.889114     -6.726008
  H      -1.034511      2.107031     -7.310736
  H      -0.105994      0.347280     -8.235167
  O      -1.029242      0.557856     -7.999131
  H      -1.204131      0.026463     -7.203060
  H      -5.842842      7.432803     -4.171459
  O      -6.361644      6.813963     -4.727434
  H      -6.596631      6.069888     -4.120286
  H      -9.802583      5.762270     -4.584403
  O     -10.332845      4.949132     -4.423566
  H     -11.237449      5.214886     -4.607637
  H      -9.236286      8.019338     -4.337476
  O      -9.033714      7.341808     -4.989221
  H      -8.051486      7.273057     -4.963838
  S      -5.215007      3.081434     -8.906337
  H      -5.596901      2.240114     -7.921303
  H      -4.362087      2.172854     -9.423715
48
Coordinates from ORCA-job neb_7_242_CI_MEP.QMRegion E -2487.681805363029
  H      -1.618396     -0.860057     -4.581845
  O      -1.118598     -0.625927     -5.391936
  H      -0.377679     -0.087784     -5.079727
  H      -3.303769      1.534179     -4.094422
  O      -4.172074      1.081824     -3.918044
  H      -4.384722      1.221844     -2.953894
  H      -1.144704      1.550965     -3.877456
  O      -1.808835      2.154246     -4.273288
  H      -1.442768      2.490958     -5.119992
  H      -5.087099      5.783184     -5.507611
  O      -4.499090      5.001727     -5.580207
  H      -3.729939      5.253090     -6.121729
  H      -5.905348      4.639897     -2.892291
  O      -6.819559      4.541915     -3.240967
  H      -6.695113      3.832372     -3.911200
  H      -5.477143      3.455773     -5.581692
  O      -5.987704      2.721728     -5.187596
  H      -5.313133      2.195850     -4.702244
  H      -5.210767     -0.202833     -4.687385
  O      -5.811205     -0.917372     -4.960768
  H      -6.663282     -0.486765     -5.135083
  H      -7.459058      1.564153     -5.219539
  O      -8.015010      0.805290     -4.976112
  H      -8.917300      1.197273     -4.807247
  H      -1.603479      6.214115     -6.969893
  O      -1.994585      5.375818     -6.707256
  H      -1.763422      5.277653     -5.732240
  H     -10.246042      2.899090     -4.880135
  O     -10.303378      2.014853     -4.487290
  H     -10.444498      2.241606     -3.537688
  H      -1.284502      3.688661     -7.064509
  O      -0.851567      2.888300     -6.725126
  H      -1.031925      2.107780     -7.313914
  H      -0.105801      0.354140     -8.239275
  O      -1.028907      0.567775     -8.006145
  H      -1.211183      0.031306     -7.215492
  H      -5.840943      7.428510     -4.172594
  O      -6.361739      6.812570     -4.729782
  H      -6.596634      6.066633     -4.124838
  H      -9.791420      5.772340     -4.564058
  O     -10.321818      4.955622     -4.422163
  H     -11.222450      5.220616     -4.625798
  H      -9.217531      8.023918     -4.263722
  O      -9.031302      7.362698     -4.936751
  H      -8.049054      7.287273     -4.931888
  S      -6.152846      3.569758     -8.778736
  H      -6.273236      2.487056     -7.980603
  H      -5.350057      2.914696     -9.642717
48
Coordinates from ORCA-job neb_7_242_CI_MEP.QMRegion E -2487.681849984206
  H      -1.628981     -0.855141     -4.587814
  O      -1.132326     -0.621217     -5.400050
  H      -0.393039     -0.079977     -5.089261
  H      -3.324623      1.540146     -4.095591
  O      -4.188963      1.082541     -3.919273
  H      -4.400233      1.222701     -2.954948
  H      -1.156847      1.553516     -3.877998
  O      -1.822336      2.155574     -4.272782
  H      -1.455179      2.499417     -5.115800
  H      -5.110846      5.771385     -5.511264
  O      -4.514423      4.995983     -5.582087
  H      -3.751107      5.253487     -6.128687
  H      -5.916852      4.646931     -2.896363
  O      -6.831249      4.549662     -3.243629
  H      -6.708868      3.841384     -3.916141
  H      -5.491969      3.458710     -5.587647
  O      -6.007820      2.729922     -5.190444
  H      -5.337066      2.199559     -4.705854
  H      -5.229230     -0.197787     -4.684366
  O      -5.829942     -0.911688     -4.959363
  H      -6.681476     -0.477914     -5.130705
  H      -7.472117      1.575938     -5.235238
  O      -8.026039      0.818211     -4.982922
  H      -8.927467      1.211686     -4.810902
  H      -1.624884      6.215823     -6.972288
  O      -2.015587      5.378339     -6.706552
  H      -1.781073      5.281025     -5.732298
  H     -10.247865      2.911854     -4.882604
  O     -10.311424      2.027172     -4.491359
  H     -10.449307      2.253391     -3.540918
  H      -1.283418      3.703839     -7.057729
  O      -0.852884      2.900635     -6.721814
  H      -1.040141      2.124772     -7.314416
  H      -0.122974      0.370398     -8.244574
  O      -1.045744      0.590441     -8.017869
  H      -1.239621      0.050007     -7.232988
  H      -5.852874      7.427655     -4.181477
  O      -6.377492      6.815850     -4.738922
  H      -6.618059      6.072101     -4.133414
  H      -9.803490      5.774708     -4.544990
  O     -10.332901      4.957271     -4.406395
  H     -11.231993      5.217928     -4.621815
  H      -9.217948      8.011133     -4.204292
  O      -9.056883      7.377902     -4.910179
  H      -8.076012      7.298976     -4.936602
  S      -6.808790      3.926276     -8.346582
  H      -6.669823      2.626616     -8.014444
  H      -6.637859      3.678473     -9.652710
48
Coordinates from ORCA-job neb_7_242_CI_MEP.QMRegion E -2487.682130854346
  H      -1.625146     -0.857554     -4.583510
  O      -1.127481     -0.623432     -5.394780
  H      -0.388525     -0.082040     -5.083674
  H      -3.315704      1.540822     -4.092897
  O      -4.183392      1.087482     -3.918210
  H      -4.394057      1.225081     -2.953632
  H      -1.152906      1.553461     -3.875285
  O      -1.818214      2.156069     -4.269638
  H      -1.451823      2.498779     -5.113905
  H      -5.090076      5.769786     -5.518433
  O      -4.499536      4.990826     -5.586176
  H      -3.728509      5.249018     -6.121930
  H      -5.911322      4.646862     -2.895401
  O      -6.825483      4.548353     -3.244575
  H      -6.699729      3.838322     -3.914987
  H      -5.512867      3.441274     -5.612383
  O      -6.012299      2.720621     -5.183211
  H      -5.326948      2.205678     -4.700901
  H      -5.220930     -0.197914     -4.682827
  O      -5.819799     -0.913979     -4.956184
  H      -6.671615     -0.483833     -5.132706
  H      -7.453805      1.567198     -5.222984
  O      -8.018212      0.811788     -4.984339
  H      -8.916875      1.209478     -4.814815
  H      -1.603168      6.217940     -6.972430
  O      -1.997154      5.381976     -6.706878
  H      -1.764388      5.283648     -5.732745
  H     -10.234208      2.922868     -4.873440
  O     -10.302589      2.032733     -4.495302
  H     -10.446209      2.247169     -3.543264
  H      -1.279655      3.698025     -7.056900
  O      -0.850807      2.896286     -6.715768
  H      -1.034830      2.117596     -7.306649
  H      -0.117213      0.367479     -8.240089
  O      -1.038770      0.586721     -8.007991
  H      -1.229473      0.043733     -7.224208
  H      -5.843087      7.426457     -4.180294
  O      -6.366326      6.813269     -4.738531
  H      -6.601635      6.066023     -4.134804
  H      -9.780379      5.772962     -4.568608
  O     -10.311616      4.954691     -4.437253
  H     -11.210643      5.220908     -4.646497
  H      -9.208585      8.010405     -4.238330
  O      -9.030518      7.367833     -4.931566
  H      -8.047796      7.289950     -4.935036
  S      -6.305069      3.624220     -8.799654
  H      -6.649452      2.565995     -8.035035
  H      -7.546843      4.140715     -8.748397
48
Coordinates from ORCA-job neb_7_242_CI_MEP.QMRegion E -2487.682638418005
  H      -1.633132     -0.855793     -4.579077
  O      -1.132973     -0.623101     -5.389812
  H      -0.395967     -0.080672     -5.076213
  H      -3.317204      1.542471     -4.082679
  O      -4.182995      1.085145     -3.909990
  H      -4.396306      1.223640     -2.945585
  H      -1.156916      1.554644     -3.865261
  O      -1.821443      2.156937     -4.261671
  H      -1.453991      2.498890     -5.105684
  H      -5.086408      5.760702     -5.533600
  O      -4.486491      4.988295     -5.586927
  H      -3.709117      5.256258     -6.108009
  H      -5.921031      4.645714     -2.900779
  O      -6.833921      4.549885     -3.252828
  H      -6.707471      3.837953     -3.922085
  H      -5.521051      3.432001     -5.597625
  O      -6.010675      2.710783     -5.159850
  H      -5.320703      2.199806     -4.679638
  H      -5.224131     -0.197241     -4.679259
  O      -5.818234     -0.917134     -4.952837
  H      -6.671966     -0.492623     -5.133107
  H      -7.444958      1.557481     -5.209995
  O      -8.016820      0.803408     -4.982400
  H      -8.914519      1.202948     -4.817055
  H      -1.582952      6.219389     -6.963654
  O      -1.982499      5.384853     -6.702103
  H      -1.754189      5.283913     -5.726362
  H     -10.223598      2.923528     -4.881703
  O     -10.302896      2.035625     -4.501021
  H     -10.447400      2.253441     -3.549926
  H      -1.279937      3.696670     -7.044075
  O      -0.851599      2.893933     -6.704305
  H      -1.036721      2.116160     -7.295451
  H      -0.116015      0.365941     -8.236527
  O      -1.037712      0.583969     -8.003691
  H      -1.227546      0.039966     -7.220298
  H      -5.839393      7.420275     -4.174489
  O      -6.359907      6.814663     -4.743690
  H      -6.596085      6.058065     -4.152103
  H      -9.749630      5.793192     -4.571912
  O     -10.275823      4.965086     -4.476710
  H     -11.172335      5.233299     -4.694579
  H      -9.178959      8.019056     -4.195880
  O      -9.007945      7.380695     -4.894600
  H      -8.024386      7.296743     -4.905723
  S      -7.040642      4.139296     -8.282454
  H      -7.192833      2.844323     -7.925679
  H      -8.284015      4.448067     -7.855562
48
Coordinates from ORCA-job neb_7_242_CI_MEP.QMRegion E -2487.685506995845
  H      -1.626596     -0.861326     -4.588532
  O      -1.130935     -0.625623     -5.400632
  H      -0.391235     -0.085047     -5.090049
  H      -3.310544      1.536659     -4.090940
  O      -4.178473      1.081815     -3.920582
  H      -4.394332      1.219892     -2.957469
  H      -1.151044      1.548095     -3.869984
  O      -1.814776      2.151521     -4.266569
  H      -1.446197      2.489982     -5.111536
  H      -5.091418      5.738251     -5.554139
  O      -4.488735      4.967932     -5.603841
  H      -3.709229      5.239820     -6.119331
  H      -5.910898      4.639241     -2.899627
  O      -6.823219      4.542074     -3.252797
  H      -6.695912      3.834153     -3.926297
  H      -5.551173      3.417059     -5.630381
  O      -6.021718      2.698653     -5.170439
  H      -5.316080      2.200414     -4.700706
  H      -5.218358     -0.201872     -4.695241
  O      -5.814935     -0.921698     -4.963025
  H      -6.665220     -0.494588     -5.152597
  H      -7.436663      1.555424     -5.228737
  O      -8.010716      0.804002     -4.994036
  H      -8.905958      1.205178     -4.833113
  H      -1.576275      6.203934     -6.973019
  O      -1.974772      5.369650     -6.709034
  H      -1.751094      5.273933     -5.731777
  H     -10.210118      2.936600     -4.881026
  O     -10.298701      2.045731     -4.512484
  H     -10.445128      2.251152     -3.559490
  H      -1.263724      3.692759     -7.047122
  O      -0.842341      2.885939     -6.708086
  H      -1.024271      2.111014     -7.304424
  H      -0.106053      0.369620     -8.249115
  O      -1.029313      0.588406     -8.021773
  H      -1.226253      0.039347     -7.244208
  H      -5.822039      7.410258     -4.176889
  O      -6.349851      6.809340     -4.744155
  H      -6.582261      6.047137     -4.157790
  H      -9.735835      5.832632     -4.500081
  O     -10.249835      4.989518     -4.474608
  H     -11.144453      5.254377     -4.706352
  H      -9.128904      8.027599     -4.094847
  O      -8.988020      7.399049     -4.808896
  H      -8.004646      7.305188     -4.854789
  S      -7.921714      4.709345     -7.451801
  H      -7.999537      3.361835     -7.499620
  H      -8.901824      4.787041     -6.525422
