21
Coordinates from ORCA-job neb_34_155_CI_MEP.QMRegion E -1845.693117689606
  H      -5.821447     -3.151800      1.403250
  O      -6.286294     -3.719896      2.070410
  H      -6.063259     -3.294743      2.924771
  H      -6.338553     -0.111981      1.196876
  O      -6.704344     -0.117006      0.294167
  H      -7.632723     -0.346742      0.372508
  H      -5.360240     -3.121386     -0.550996
  O      -5.130957     -2.390326      0.055354
  H      -5.712314     -1.637930     -0.172337
  H      -9.031434     -1.757623     -2.269965
  O      -8.509508     -1.544198     -1.463504
  H      -8.592555     -2.309793     -0.850119
  H      -7.866971     -3.720852      0.938769
  O      -8.564386     -3.664187      0.256691
  H      -8.395824     -4.419451     -0.350476
  H      -7.876461      0.137740     -1.966998
  O      -7.373957      0.852443     -2.382068
  H      -7.605976      0.844472     -3.334356
  S     -10.908141     -4.744760      2.499524
  H      -9.935770     -4.382828      3.362682
  H     -10.170839     -4.328898      1.441098
21
Coordinates from ORCA-job neb_34_155_CI_MEP.QMRegion E -1845.692624394683
  H      -5.800035     -3.167488      1.389661
  O      -6.270002     -3.729514      2.059550
  H      -6.045532     -3.307359      2.914543
  H      -6.317425     -0.139367      1.189494
  O      -6.693633     -0.149308      0.290300
  H      -7.620256     -0.380722      0.381895
  H      -5.349652     -3.142907     -0.558904
  O      -5.121375     -2.407835      0.044348
  H      -5.706676     -1.659222     -0.185837
  H      -9.030131     -1.766773     -2.269652
  O      -8.504913     -1.553197     -1.465583
  H      -8.573907     -2.322804     -0.855198
  H      -7.842501     -3.740786      0.936319
  O      -8.528412     -3.667847      0.243948
  H      -8.379936     -4.431588     -0.357870
  H      -7.865402      0.124488     -1.965134
  O      -7.369198      0.843882     -2.380129
  H      -7.600033      0.833291     -3.332587
  S     -11.072533     -3.949544      2.429706
  H     -10.175625     -3.270403      3.175830
  H     -10.242901     -3.923413      1.357573
21
Coordinates from ORCA-job neb_34_155_CI_MEP.QMRegion E -1845.692354532819
  H      -5.800751     -3.153876      1.387482
  O      -6.271277     -3.718905      2.053611
  H      -6.053960     -3.297849      2.910930
  H      -6.318156     -0.125636      1.190761
  O      -6.693566     -0.129148      0.291259
  H      -7.620460     -0.360443      0.379563
  H      -5.355485     -3.128852     -0.562984
  O      -5.122858     -2.394186      0.038322
  H      -5.705988     -1.643742     -0.190910
  H      -9.031311     -1.751051     -2.270251
  O      -8.504942     -1.534924     -1.467470
  H      -8.575157     -2.302121     -0.854461
  H      -7.842341     -3.724285      0.940699
  O      -8.524392     -3.648950      0.244234
  H      -8.380402     -4.415207     -0.354468
  H      -7.868881      0.138813     -1.967069
  O      -7.368744      0.855308     -2.382319
  H      -7.600754      0.846202     -3.334498
  S     -11.105489     -3.472754      2.405125
  H     -10.331484     -2.474913      2.880329
  H     -10.248591     -3.694179      1.378203
21
Coordinates from ORCA-job neb_34_155_CI_MEP.QMRegion E -1845.692397613977
  H      -5.799104     -3.155490      1.388085
  O      -6.271748     -3.722880      2.049881
  H      -6.065921     -3.301071      2.909369
  H      -6.316263     -0.126248      1.196466
  O      -6.698078     -0.124425      0.299164
  H      -7.622622     -0.362097      0.393311
  H      -5.361502     -3.125868     -0.564808
  O      -5.125797     -2.391459      0.035350
  H      -5.710439     -1.641282     -0.190138
  H      -9.034481     -1.755572     -2.266365
  O      -8.509441     -1.538843     -1.463064
  H      -8.571910     -2.310312     -0.853544
  H      -7.843917     -3.722058      0.941719
  O      -8.523686     -3.649554      0.242195
  H      -8.382645     -4.419083     -0.352664
  H      -7.871967      0.134010     -1.962427
  O      -7.372729      0.850671     -2.378689
  H      -7.605419      0.841345     -3.330635
  S     -10.946826     -3.080323      2.489757
  H     -10.546163     -1.800001      2.349840
  H     -10.185366     -3.479471      1.441590
21
Coordinates from ORCA-job neb_34_155_CI_MEP.QMRegion E -1845.692447212113
  H      -5.776736     -3.135418      1.360128
  O      -6.254416     -3.700882      2.019648
  H      -6.060143     -3.276145      2.880312
  H      -6.302461     -0.106901      1.179125
  O      -6.679285     -0.100525      0.279904
  H      -7.604025     -0.338606      0.370635
  H      -5.356736     -3.101823     -0.594083
  O      -5.112965     -2.370532      0.005382
  H      -5.689838     -1.613532     -0.218195
  H      -9.023636     -1.729905     -2.285390
  O      -8.502966     -1.508722     -1.479553
  H      -8.559343     -2.283352     -0.871945
  H      -7.815132     -3.679883      0.904184
  O      -8.504194     -3.616996      0.212505
  H      -8.372590     -4.394570     -0.373921
  H      -7.854988      0.147630     -1.983186
  O      -7.358395      0.868669     -2.394869
  H      -7.589087      0.860065     -3.347442
  S     -10.742434     -2.605642      2.479133
  H     -10.692037     -1.413605      1.849704
  H     -10.082692     -3.221892      1.468574
21
Coordinates from ORCA-job neb_34_155_CI_MEP.QMRegion E -1845.692872776537
  H      -5.759209     -3.111450      1.333598
  O      -6.232569     -3.677286      1.995975
  H      -6.041852     -3.247937      2.855271
  H      -6.293480     -0.075635      1.172724
  O      -6.694841     -0.075731      0.284205
  H      -7.614335     -0.318703      0.412406
  H      -5.366162     -3.060624     -0.624598
  O      -5.115201     -2.335926     -0.022497
  H      -5.701698     -1.579717     -0.226063
  H      -9.013696     -1.716949     -2.302690
  O      -8.498989     -1.490679     -1.494030
  H      -8.552713     -2.265818     -0.886880
  H      -7.797470     -3.659876      0.876463
  O      -8.492988     -3.607563      0.190743
  H      -8.364724     -4.390421     -0.389082
  H      -7.850695      0.166978     -1.988112
  O      -7.352991      0.885712     -2.402660
  H      -7.586513      0.876948     -3.354414
  S     -10.443233     -2.030692      2.330634
  H     -10.725900     -1.108755      1.387169
  H      -9.988744     -2.912687      1.408553
21
Coordinates from ORCA-job neb_34_155_CI_MEP.QMRegion E -1845.699145961271
  H      -5.785801     -3.153584      1.348285
  O      -6.246560     -3.715504      2.027039
  H      -6.028906     -3.282675      2.877954
  H      -6.289944     -0.116659      1.174857
  O      -6.739370     -0.168598      0.311135
  H      -7.660766     -0.356312      0.539376
  H      -5.375990     -3.097726     -0.603446
  O      -5.142411     -2.375068      0.009088
  H      -5.764231     -1.636478     -0.167986
  H      -9.028278     -1.806525     -2.294800
  O      -8.520559     -1.571196     -1.486414
  H      -8.566936     -2.336110     -0.868913
  H      -7.831469     -3.732808      0.928306
  O      -8.554491     -3.678061      0.273205
  H      -8.422184     -4.442253     -0.327352
  H      -7.872887      0.119113     -1.937025
  O      -7.390665      0.839268     -2.369336
  H      -7.632829      0.819684     -3.318027
  S      -9.866360     -0.796329      1.640192
  H     -10.379573     -0.474387      0.435175
  H      -9.733134     -2.094464      1.291055
