39
Coordinates from ORCA-job neb_85_170_CI_MEP.QMRegion E -2273.688046575139
  H       2.248549      5.778284     -1.181903
  O       3.179048      5.454353     -1.048048
  H       3.295046      4.815353     -1.779583
  H       4.269308      5.552471      0.399530
  O       4.635614      5.677743      1.294672
  H       3.919812      6.204537      1.710068
  H       3.438304      3.382589     -3.624906
  O       3.223538      4.340404     -3.515086
  H       2.244623      4.306454     -3.578962
  H       5.839534     -0.035940      0.431922
  O       5.642515      0.690707      1.058255
  H       6.146832      0.481186      1.875667
  H       5.435407      3.638092      3.632467
  O       6.104375      3.925015      4.279262
  H       5.630254      4.571686      4.833103
  H       3.780105      7.105837     -1.338336
  O       3.910913      8.053330     -1.555401
  H       3.779342      8.033481     -2.523085
  H       6.138992      1.825585     -0.491421
  O       6.720574      2.034480     -1.237617
  H       7.511320      1.489226     -1.043700
  H       4.564211      4.026013      1.735869
  O       4.397031      3.087759      1.988107
  H       5.130442      2.559628      1.654939
  H       3.567261      6.280338     -4.168211
  O       3.766987      7.223597     -4.265315
  H       4.729876      7.237521     -4.402979
  H       6.803031      3.235856     -4.610315
  O       6.883221      2.575016     -5.323421
  H       6.042400      2.658703     -5.806835
  H       4.852207      8.640445      0.121535
  O       5.158657      8.606454      1.042815
  H       5.507988      7.707375      1.123590
  H       5.380723      4.279265     -3.039390
  O       6.333906      4.138512     -3.025151
  H       6.486123      3.493451     -2.302922
  S       7.057353      7.405194     -3.624893
  H       6.412240      7.789955     -2.502496
  H       7.001123      6.099471     -3.266521
39
Coordinates from ORCA-job neb_85_170_CI_MEP.QMRegion E -2273.681957293245
  H       2.238421      5.785613     -1.216628
  O       3.176124      5.472864     -1.107671
  H       3.284341      4.841814     -1.845844
  H       4.236522      5.581737      0.337550
  O       4.605352      5.701035      1.233295
  H       3.893290      6.228370      1.655938
  H       3.438760      3.408232     -3.674898
  O       3.203072      4.363020     -3.591147
  H       2.223104      4.306269     -3.634269
  H       5.834096     -0.025978      0.429352
  O       5.634020      0.701978      1.053180
  H       6.139259      0.495861      1.870653
  H       5.378955      3.631449      3.611938
  O       6.059578      3.916336      4.248193
  H       5.599352      4.570171      4.805053
  H       3.751195      7.136405     -1.418528
  O       3.870943      8.098773     -1.562206
  H       3.813632      8.156049     -2.528887
  H       6.114266      1.823818     -0.503523
  O       6.697473      2.043142     -1.245437
  H       7.494991      1.509307     -1.049965
  H       4.528529      4.063271      1.700542
  O       4.375143      3.123351      1.961748
  H       5.120484      2.607529      1.636648
  H       3.539522      6.270881     -4.213775
  O       3.755421      7.209317     -4.329913
  H       4.669540      7.198127     -4.629106
  H       6.796641      3.233456     -4.650971
  O       6.882996      2.563114     -5.354271
  H       6.041433      2.636758     -5.837446
  H       4.778743      8.688625      0.080199
  O       5.103690      8.667479      0.997420
  H       5.474238      7.777524      1.073761
  H       5.378640      4.379815     -3.100083
  O       6.305200      4.118769     -3.076523
  H       6.373207      3.449338     -2.364827
  S       7.843883      7.087904     -2.380436
  H       7.275356      7.267938     -1.173351
  H       7.374709      5.825667     -2.480789
39
Coordinates from ORCA-job neb_85_170_CI_MEP.QMRegion E -2273.681964433988
  H       2.257906      5.802724     -1.203860
  O       3.192465      5.487671     -1.080053
  H       3.305167      4.847274     -1.809022
  H       4.278934      5.592545      0.365294
  O       4.645571      5.708607      1.261803
  H       3.930925      6.234866      1.681358
  H       3.459910      3.409213     -3.651463
  O       3.223987      4.362507     -3.556642
  H       2.245016      4.309714     -3.611390
  H       5.845712     -0.020912      0.424895
  O       5.644487      0.706423      1.049392
  H       6.148025      0.499143      1.867319
  H       5.423607      3.650866      3.624413
  O       6.094808      3.932867      4.271310
  H       5.624093      4.581020      4.826554
  H       3.793367      7.157466     -1.385055
  O       3.905308      8.119236     -1.532747
  H       3.887034      8.168697     -2.500296
  H       6.145074      1.836321     -0.495196
  O       6.720136      2.047411     -1.246116
  H       7.516911      1.510545     -1.055805
  H       4.565408      4.063751      1.714492
  O       4.405074      3.123796      1.968990
  H       5.146083      2.603549      1.641018
  H       3.596036      6.235842     -4.170748
  O       3.799168      7.176801     -4.298067
  H       4.639620      7.171331     -4.764507
  H       6.832020      3.251167     -4.623201
  O       6.896197      2.582968     -5.331140
  H       6.052398      2.670794     -5.807757
  H       4.840640      8.702377      0.113716
  O       5.126681      8.673887      1.043545
  H       5.516178      7.792441      1.118877
  H       5.453446      4.403093     -3.042847
  O       6.384926      4.158911     -3.030673
  H       6.462613      3.476229     -2.331306
  S       8.095383      6.886801     -1.726359
  H       7.577830      6.794146     -0.483790
  H       7.457324      5.765508     -2.135318
39
Coordinates from ORCA-job neb_85_170_CI_MEP.QMRegion E -2273.682077748059
  H       2.252983      5.792683     -1.190088
  O       3.186358      5.474291     -1.066435
  H       3.297393      4.832086     -1.794483
  H       4.271602      5.580281      0.377006
  O       4.640666      5.690551      1.273239
  H       3.933915      6.226523      1.693308
  H       3.457602      3.397986     -3.634770
  O       3.219723      4.350828     -3.538113
  H       2.240823      4.296474     -3.598361
  H       5.838805     -0.033595      0.438358
  O       5.638565      0.693409      1.062903
  H       6.141792      0.486426      1.881808
  H       5.417824      3.637315      3.635386
  O       6.088530      3.923880      4.281178
  H       5.615449      4.568573      4.838916
  H       3.791039      7.147973     -1.367849
  O       3.906697      8.109304     -1.514834
  H       3.900277      8.160736     -2.481542
  H       6.136362      1.823821     -0.487674
  O       6.717086      2.033211     -1.234454
  H       7.510078      1.492008     -1.038236
  H       4.557168      4.050875      1.725516
  O       4.399159      3.110255      1.981026
  H       5.139664      2.590111      1.651895
  H       3.614489      6.189099     -4.146896
  O       3.819179      7.129445     -4.279263
  H       4.605707      7.122741     -4.832506
  H       6.833486      3.251278     -4.598565
  O       6.889548      2.584491     -5.308800
  H       6.043209      2.670892     -5.781411
  H       4.840718      8.702289      0.138146
  O       5.115223      8.681020      1.071444
  H       5.538197      7.815604      1.146211
  H       5.481596      4.401686     -2.994703
  O       6.417712      4.175248     -2.989646
  H       6.505056      3.483885     -2.299072
  S       8.162093      6.807957     -1.406144
  H       7.713919      6.414556     -0.196037
  H       7.452904      5.845908     -2.043335
39
Coordinates from ORCA-job neb_85_170_CI_MEP.QMRegion E -2273.682194910321
  H       2.273963      5.809563     -1.187174
  O       3.206535      5.494478     -1.056864
  H       3.320142      4.848076     -1.779608
  H       4.307081      5.597010      0.403743
  O       4.646064      5.689215      1.312395
  H       3.935091      6.232855      1.715375
  H       3.474315      3.414346     -3.636042
  O       3.227236      4.363645     -3.537957
  H       2.248824      4.303687     -3.593668
  H       5.852029     -0.020806      0.428734
  O       5.651553      0.706778      1.053649
  H       6.155912      0.498578      1.870449
  H       5.423055      3.646801      3.627485
  O       6.097460      3.930223      4.270818
  H       5.630188      4.583211      4.823253
  H       3.821645      7.170051     -1.368704
  O       3.910268      8.131244     -1.532693
  H       3.885545      8.165656     -2.499967
  H       6.150740      1.837269     -0.492168
  O       6.729515      2.052147     -1.239411
  H       7.522566      1.509883     -1.048789
  H       4.543819      4.053784      1.737136
  O       4.395926      3.108059      1.983842
  H       5.141222      2.598755      1.649429
  H       3.589851      6.190950     -4.141054
  O       3.777829      7.133927     -4.285064
  H       4.531729      7.133797     -4.879765
  H       6.834293      3.256477     -4.617014
  O       6.899166      2.582753     -5.321315
  H       6.057769      2.670173     -5.801590
  H       4.845598      8.732922      0.122179
  O       5.115311      8.694593      1.055797
  H       5.575065      7.846489      1.102692
  H       5.508542      4.471509     -3.038613
  O       6.421401      4.170953     -3.035929
  H       6.457634      3.466736     -2.356248
  S       8.021241      6.461411     -0.729771
  H       7.721481      5.993962      0.501125
  H       7.522261      5.361016     -1.339531
39
Coordinates from ORCA-job neb_85_170_CI_MEP.QMRegion E -2273.682043358153
  H       2.273878      5.816719     -1.197244
  O       3.206331      5.503250     -1.063377
  H       3.319088      4.852893     -1.782385
  H       4.309357      5.596013      0.422401
  O       4.607935      5.671490      1.345820
  H       3.894934      6.230591      1.724361
  H       3.470984      3.424274     -3.646665
  O       3.215552      4.370550     -3.544504
  H       2.237327      4.304576     -3.600110
  H       5.846127     -0.017866      0.415501
  O       5.647453      0.710434      1.039907
  H       6.151843      0.502118      1.856473
  H       5.390961      3.639305      3.614961
  O       6.080021      3.933600      4.238144
  H       5.622037      4.589939      4.794503
  H       3.815526      7.170702     -1.388084
  O       3.904323      8.131603     -1.558026
  H       3.861078      8.162592     -2.524899
  H       6.137938      1.839168     -0.505945
  O       6.722433      2.067433     -1.244821
  H       7.513532      1.520954     -1.058332
  H       4.499152      4.044992      1.745631
  O       4.363403      3.093260      1.981516
  H       5.116406      2.596069      1.646357
  H       3.542676      6.176918     -4.148285
  O       3.714114      7.121041     -4.304939
  H       4.422649      7.123885     -4.954481
  H       6.806955      3.259279     -4.634140
  O       6.891595      2.585335     -5.338007
  H       6.052425      2.663491     -5.823409
  H       4.832711      8.730326      0.098420
  O       5.114888      8.687957      1.027899
  H       5.578661      7.840835      1.066477
  H       5.483986      4.512929     -3.086030
  O       6.385503      4.176749     -3.093094
  H       6.407490      3.488391     -2.401587
  S       7.896187      5.975930     -0.061870
  H       7.539518      5.548253      1.168353
  H       7.511441      4.818841     -0.636514
39
Coordinates from ORCA-job neb_85_170_CI_MEP.QMRegion E -2273.682018148709
  H       2.276161      5.830688     -1.182649
  O       3.213690      5.528702     -1.059331
  H       3.324646      4.880345     -1.781510
  H       4.294042      5.596735      0.441725
  O       4.583809      5.670189      1.368261
  H       3.870699      6.234384      1.740186
  H       3.456123      3.418119     -3.620618
  O       3.203474      4.365792     -3.521079
  H       2.224911      4.302226     -3.578178
  H       5.825588     -0.032684      0.439493
  O       5.627724      0.698580      1.059979
  H       6.130666      0.494607      1.879249
  H       5.373314      3.639113      3.631772
  O       6.071998      3.935247      4.243646
  H       5.621515      4.591410      4.806951
  H       3.817862      7.186814     -1.394405
  O       3.919957      8.151337     -1.540082
  H       3.900179      8.210150     -2.505336
  H       6.107507      1.817354     -0.486605
  O       6.699026      2.056746     -1.216600
  H       7.488624      1.507655     -1.029265
  H       4.473788      4.054130      1.769468
  O       4.346850      3.098607      1.998834
  H       5.106126      2.611634      1.664207
  H       3.532064      6.183362     -4.142801
  O       3.737037      7.118613     -4.308400
  H       4.397837      7.091688     -5.005938
  H       6.783283      3.240459     -4.616257
  O       6.874047      2.569261     -5.322913
  H       6.032872      2.639770     -5.806169
  H       4.856992      8.710693      0.121661
  O       5.129929      8.676195      1.054433
  H       5.591827      7.829277      1.112124
  H       5.473957      4.523815     -3.095615
  O       6.372428      4.179869     -3.098184
  H       6.397624      3.522630     -2.379007
  S       7.972094      5.458341      0.415557
  H       7.329066      5.195227      1.572745
  H       7.477542      4.351310     -0.176350
