30
Coordinates from ORCA-job neb_274_278_CI_MEP.QMRegion E -2059.690995491506
  H      -3.152972      4.939034      1.086399
  O      -3.943588      5.296964      0.633998
  H      -4.340006      5.863003      1.344552
  H      -3.830292      4.618853      7.843784
  O      -3.280407      4.182702      7.156074
  H      -3.445538      3.233306      7.317584
  H      -4.377898      6.420110      3.434891
  O      -4.601855      6.887234      2.608252
  H      -3.814377      7.447418      2.466808
  H      -1.924249      8.871397      3.537916
  O      -1.674253      9.211034      4.424827
  H      -2.528943      9.317182      4.880376
  H      -3.715582      5.175326      5.639188
  O      -3.710569      5.978389      5.087026
  H      -2.806972      6.338013      5.280641
  H      -6.198092      3.191897      7.321731
  O      -6.112537      2.710952      8.181952
  H      -6.675364      1.913701      8.081821
  H      -5.638568      3.670496      5.240557
  O      -6.342878      4.058464      5.811608
  H      -6.089538      4.985436      5.865966
  H      -4.171818      4.919932      9.889295
  O      -4.851681      5.048599      9.195371
  H      -5.406094      4.249464      9.217583
  H      -4.794292      8.933269      6.330850
  O      -4.290219      8.808179      5.516327
  H      -4.297144      7.842908      5.405947
  S      -6.572329      7.901811      8.022677
  H      -5.885203      6.858239      8.541918
  H      -7.180245      7.130137      7.098400
30
Coordinates from ORCA-job neb_274_278_CI_MEP.QMRegion E -2059.689656190948
  H      -3.166126      4.937982      1.086691
  O      -3.956178      5.302909      0.639317
  H      -4.350042      5.861615      1.356254
  H      -3.856411      4.611166      7.856043
  O      -3.300658      4.178737      7.168350
  H      -3.467262      3.227973      7.320252
  H      -4.375366      6.416594      3.467626
  O      -4.600235      6.878400      2.637790
  H      -3.816306      7.442741      2.494354
  H      -1.853364      8.862238      3.512593
  O      -1.570056      9.210208      4.386756
  H      -2.408683      9.366415      4.854193
  H      -3.734120      5.176012      5.677850
  O      -3.723319      5.983580      5.129901
  H      -2.805380      6.317612      5.302673
  H      -6.225979      3.184133      7.304984
  O      -6.128598      2.710103      8.166584
  H      -6.692350      1.912414      8.074533
  H      -5.670210      3.669210      5.219814
  O      -6.387683      4.047575      5.780237
  H      -6.126214      4.968874      5.873213
  H      -4.213462      4.934959      9.875085
  O      -4.889376      5.073519      9.181479
  H      -5.445937      4.276310      9.202953
  H      -4.808500      9.086793      6.153184
  O      -4.116681      8.851843      5.522403
  H      -4.169359      7.883024      5.475065
  S      -6.931363      8.183830      7.387168
  H      -6.248796      7.163030      7.947311
  H      -7.154066      7.504685      6.242724
30
Coordinates from ORCA-job neb_274_278_CI_MEP.QMRegion E -2059.689151777476
  H      -3.171887      4.950479      1.114296
  O      -3.961509      5.315705      0.664417
  H      -4.357329      5.874827      1.377756
  H      -3.860298      4.618882      7.881069
  O      -3.309107      4.193448      7.183209
  H      -3.473773      3.241489      7.326034
  H      -4.387921      6.458282      3.503275
  O      -4.607919      6.912721      2.667595
  H      -3.814090      7.460612      2.513830
  H      -1.847066      8.859387      3.517786
  O      -1.565900      9.211846      4.389950
  H      -2.404569      9.379019      4.853997
  H      -3.752231      5.216484      5.716140
  O      -3.742969      6.027793      5.172873
  H      -2.812502      6.339859      5.320826
  H      -6.226457      3.179281      7.312376
  O      -6.127817      2.705900      8.173920
  H      -6.690429      1.907766      8.081574
  H      -5.669158      3.673336      5.227715
  O      -6.391907      4.045205      5.785393
  H      -6.127775      4.963187      5.900703
  H      -4.217677      4.931414      9.893401
  O      -4.893157      5.071001      9.199976
  H      -5.449137      4.274022      9.220969
  H      -4.911278      9.182135      5.943316
  O      -4.019403      8.881509      5.729582
  H      -4.111389      7.918078      5.642954
  S      -7.253221      8.426968      6.847073
  H      -6.598506      7.503698      7.581984
  H      -7.296274      7.630009      5.759655
30
Coordinates from ORCA-job neb_274_278_CI_MEP.QMRegion E -2059.689154097110
  H      -3.173294      4.960511      1.104311
  O      -3.965534      5.321476      0.655956
  H      -4.362192      5.885111      1.364244
  H      -3.849478      4.619820      7.842686
  O      -3.295127      4.189718      7.148566
  H      -3.466305      3.239853      7.294958
  H      -4.381081      6.469939      3.490447
  O      -4.613752      6.930297      2.660432
  H      -3.818464      7.474390      2.498799
  H      -1.838598      8.866209      3.501355
  O      -1.557165      9.215511      4.374666
  H      -2.398838      9.367346      4.842288
  H      -3.741077      5.206339      5.676998
  O      -3.732824      6.021148      5.138276
  H      -2.802494      6.331723      5.287984
  H      -6.226053      3.188525      7.282239
  O      -6.129542      2.715830      8.143941
  H      -6.691546      1.917058      8.052473
  H      -5.669350      3.687353      5.202305
  O      -6.393793      4.065448      5.753626
  H      -6.116742      4.977822      5.882725
  H      -4.193283      4.929037      9.859110
  O      -4.861843      5.068127      9.159189
  H      -5.426375      4.277560      9.183811
  H      -4.881910      9.203299      5.712826
  O      -3.968073      8.893721      5.757972
  H      -4.048603      7.929932      5.664882
  S      -7.327601      8.541149      6.207082
  H      -6.764012      7.703925      7.102799
  H      -7.171857      7.665909      5.192615
30
Coordinates from ORCA-job neb_274_278_CI_MEP.QMRegion E -2059.689264993307
  H      -3.171224      4.961659      1.109038
  O      -3.961870      5.320214      0.655353
  H      -4.362346      5.890537      1.355510
  H      -3.834665      4.627281      7.799051
  O      -3.281628      4.189630      7.107555
  H      -3.461019      3.242954      7.260594
  H      -4.382140      6.483235      3.461574
  O      -4.627423      6.952643      2.639446
  H      -3.830368      7.493811      2.473765
  H      -1.816986      8.864138      3.495295
  O      -1.538232      9.216069      4.368250
  H      -2.383692      9.369760      4.830446
  H      -3.736761      5.205065      5.620665
  O      -3.723928      6.024941      5.090649
  H      -2.796266      6.335660      5.255385
  H      -6.226500      3.201500      7.239307
  O      -6.130012      2.731815      8.102062
  H      -6.692874      1.932961      8.017087
  H      -5.672398      3.702025      5.170304
  O      -6.401038      4.090755      5.708424
  H      -6.116202      5.000805      5.838096
  H      -4.171520      4.926637      9.826868
  O      -4.828784      5.072703      9.117977
  H      -5.405224      4.290897      9.137070
  H      -4.856599      9.227951      5.517274
  O      -3.959741      8.927083      5.718361
  H      -4.024181      7.960699      5.642498
  S      -7.333688      8.669131      5.584549
  H      -6.955030      7.860463      6.596040
  H      -7.001034      7.760563      4.644605
30
Coordinates from ORCA-job neb_274_278_CI_MEP.QMRegion E -2059.690432276422
  H      -3.172244      4.969580      1.116546
  O      -3.963016      5.325362      0.659734
  H      -4.368262      5.897310      1.353218
  H      -3.827282      4.632433      7.776594
  O      -3.275005      4.191015      7.086408
  H      -3.458426      3.245952      7.242894
  H      -4.378601      6.494081      3.459519
  O      -4.640814      6.971836      2.645632
  H      -3.845659      7.513961      2.472055
  H      -1.805407      8.865062      3.489960
  O      -1.526609      9.217622      4.362544
  H      -2.373442      9.374756      4.822550
  H      -3.734193      5.204277      5.589475
  O      -3.719770      6.028287      5.066195
  H      -2.794551      6.340777      5.240324
  H      -6.226653      3.208851      7.220543
  O      -6.129848      2.739618      8.083291
  H      -6.693242      1.941033      8.000760
  H      -5.673460      3.711120      5.156209
  O      -6.403185      4.103812      5.689529
  H      -6.115065      5.012657      5.821251
  H      -4.159806      4.927336      9.810002
  O      -4.811728      5.076936      9.097141
  H      -5.395118      4.300517      9.115136
  H      -4.832220      9.254006      5.378026
  O      -3.960729      8.964460      5.685462
  H      -4.016938      7.996820      5.636520
  S      -7.242509      8.780418      4.954752
  H      -7.119032      7.945901      6.007408
  H      -6.693388      7.894500      4.096647
30
Coordinates from ORCA-job neb_274_278_CI_MEP.QMRegion E -2059.695067342925
  H      -3.165047      4.930543      1.105285
  O      -3.955851      5.299684      0.658864
  H      -4.357657      5.834611      1.378386
  H      -3.839440      4.630228      7.870058
  O      -3.293587      4.198692      7.167450
  H      -3.459156      3.248681      7.319973
  H      -4.311014      6.452793      3.581003
  O      -4.530715      6.876953      2.719616
  H      -3.725054      7.403581      2.528981
  H      -1.849187      8.865074      3.515653
  O      -1.598719      9.210886      4.397999
  H      -2.462654      9.345794      4.837114
  H      -3.759810      5.239978      5.709525
  O      -3.760495      6.075082      5.202376
  H      -2.827781      6.383435      5.347444
  H      -6.216216      3.175704      7.379220
  O      -6.115472      2.697550      8.238275
  H      -6.680810      1.903469      8.140996
  H      -5.650488      3.685295      5.291625
  O      -6.368607      4.040388      5.862695
  H      -6.114492      4.957639      6.006425
  H      -4.154178      4.959256      9.878572
  O      -4.827759      5.096778      9.182323
  H      -5.404973      4.318249      9.236410
  H      -4.910451      9.249456      5.081925
  O      -4.124012      9.027670      5.607625
  H      -4.170204      8.061821      5.686729
  S      -6.797070      9.145705      3.515470
  H      -7.505387      8.257660      4.242621
  H      -5.950515      8.178345      3.055787
