27
Coordinates from ORCA-job neb_109_369_CI_MEP.QMRegion E -1988.357925425039
  H       6.404826      1.029327      4.693314
  O       6.080607      1.528132      5.463864
  H       6.245078      2.454096      5.191147
  H       4.166347      4.762519      6.235086
  O       4.182639      5.487594      5.597596
  H       3.576760      5.174248      4.876593
  H       5.368351      3.582932      3.506753
  O       6.049940      3.915687      4.123819
  H       5.576888      4.611326      4.608440
  H       0.565795      7.132431      7.685285
  O      -0.351497      7.215051      7.996690
  H      -0.867090      7.158529      7.154521
  H       2.686388      6.483135      6.229278
  O       1.721604      6.550033      6.334416
  H       1.441615      5.608874      6.247603
  H       4.788053      8.461874      0.043290
  O       5.135602      8.477070      0.959965
  H       5.453789      7.570400      1.090462
  H       0.260416      8.673806      4.256196
  O       0.960921      8.043033      4.037437
  H       1.126513      7.503875      4.835394
  H       3.572770      8.171616      1.836139
  O       2.778776      7.620862      1.986017
  H       2.324063      7.913016      2.793354
  S       7.650253      6.034158      6.636576
  H       6.479652      6.538642      6.200098
  H       7.838796      5.358981      5.485059
27
Coordinates from ORCA-job neb_109_369_CI_MEP.QMRegion E -1988.357183591752
  H       6.413789      1.019788      4.704432
  O       6.084947      1.515336      5.475162
  H       6.251914      2.441690      5.205231
  H       4.176579      4.783054      6.212865
  O       4.175416      5.508795      5.576236
  H       3.573165      5.183879      4.856909
  H       5.363867      3.560542      3.514623
  O       6.048560      3.894494      4.127306
  H       5.592014      4.616705      4.586713
  H       0.561378      7.128494      7.682503
  O      -0.355692      7.210471      7.994483
  H      -0.871150      7.151836      7.151975
  H       2.672470      6.477889      6.212291
  O       1.708073      6.542049      6.322441
  H       1.432412      5.598635      6.239149
  H       4.803514      8.454638      0.031152
  O       5.157972      8.454910      0.945402
  H       5.463497      7.541746      1.063157
  H       0.267557      8.671017      4.248314
  O       0.969987      8.041780      4.031437
  H       1.124112      7.494878      4.826931
  H       3.592500      8.158265      1.824794
  O       2.794290      7.614512      1.979111
  H       2.347518      7.907213      2.790288
  S       7.216897      7.029206      6.575159
  H       5.928265      7.146906      6.184860
  H       7.582046      6.569398      5.360810
27
Coordinates from ORCA-job neb_109_369_CI_MEP.QMRegion E -1988.357131891226
  H       6.403178      1.021434      4.700331
  O       6.076973      1.521404      5.469252
  H       6.242082      2.446481      5.193143
  H       4.179063      4.805535      6.181042
  O       4.176112      5.539194      5.553953
  H       3.581148      5.209579      4.829457
  H       5.351946      3.577491      3.519001
  O       6.061437      3.891378      4.113834
  H       5.658799      4.656602      4.550008
  H       0.553954      7.142343      7.661146
  O      -0.360328      7.215269      7.982413
  H      -0.879265      7.157230      7.141219
  H       2.665831      6.485845      6.179112
  O       1.701454      6.553368      6.290233
  H       1.423486      5.610531      6.216676
  H       4.826869      8.451626      0.015048
  O       5.185033      8.450824      0.928103
  H       5.474006      7.532698      1.049474
  H       0.272113      8.683429      4.213788
  O       0.970015      8.049012      3.997847
  H       1.120846      7.502993      4.794656
  H       3.606191      8.172146      1.803876
  O       2.811108      7.625270      1.962794
  H       2.357807      7.924586      2.767948
  S       6.818242      7.802641      6.468506
  H       5.568478      7.316965      6.352666
  H       7.043342      7.595671      5.156708
27
Coordinates from ORCA-job neb_109_369_CI_MEP.QMRegion E -1988.357057226166
  H       6.400521      1.024664      4.697176
  O       6.074126      1.528833      5.463335
  H       6.238491      2.452471      5.180785
  H       4.178839      4.787437      6.152115
  O       4.187862      5.535523      5.542532
  H       3.592542      5.222872      4.810673
  H       5.350746      3.572990      3.509883
  O       6.069013      3.884422      4.095757
  H       5.685837      4.669137      4.513358
  H       0.555588      7.142643      7.656657
  O      -0.358536      7.214213      7.978309
  H      -0.877493      7.157439      7.136744
  H       2.670933      6.496874      6.173817
  O       1.705521      6.559204      6.275551
  H       1.430678      5.615653      6.204509
  H       4.833987      8.447035      0.009052
  O       5.194975      8.447281      0.921296
  H       5.482754      7.528884      1.043926
  H       0.275287      8.689295      4.202240
  O       0.971419      8.053841      3.983750
  H       1.124984      7.508312      4.780435
  H       3.613715      8.173595      1.792056
  O       2.816846      7.630504      1.955360
  H       2.364158      7.934347      2.759230
  S       6.417756      8.278963      6.434350
  H       5.599922      7.208608      6.456106
  H       6.173342      8.480516      5.123524
27
Coordinates from ORCA-job neb_109_369_CI_MEP.QMRegion E -1988.357104777145
  H       6.399921      1.027578      4.696266
  O       6.074621      1.528912      5.464765
  H       6.235267      2.453780      5.185563
  H       4.205071      4.844752      6.133007
  O       4.193202      5.579685      5.507986
  H       3.595147      5.243455      4.788346
  H       5.342483      3.563094      3.503236
  O       6.056669      3.882689      4.090230
  H       5.675616      4.682163      4.480362
  H       0.553775      7.153097      7.663628
  O      -0.361288      7.220194      7.983142
  H      -0.878467      7.161184      7.141176
  H       2.666104      6.511658      6.167067
  O       1.700922      6.564586      6.276228
  H       1.431240      5.619811      6.204203
  H       4.825342      8.450255      0.003907
  O       5.179690      8.452005      0.918805
  H       5.482199      7.538297      1.039972
  H       0.264569      8.698260      4.210431
  O       0.968719      8.070329      3.994507
  H       1.119274      7.522354      4.790413
  H       3.608867      8.170260      1.785434
  O       2.810277      7.631408      1.958985
  H       2.360064      7.945732      2.759899
  S       5.998008      8.612193      6.255037
  H       5.606207      7.335164      6.083309
  H       5.186086      9.027792      5.263061
27
Coordinates from ORCA-job neb_109_369_CI_MEP.QMRegion E -1988.357418207092
  H       6.387495      1.040709      4.684469
  O       6.066640      1.539598      5.456262
  H       6.222339      2.465919      5.180155
  H       4.239054      4.937499      6.096477
  O       4.189268      5.652692      5.451141
  H       3.586748      5.277664      4.754084
  H       5.322295      3.567253      3.495088
  O       6.037964      3.893155      4.077541
  H       5.669718      4.712743      4.436183
  H       0.540508      7.168972      7.659941
  O      -0.373532      7.228991      7.983197
  H      -0.892326      7.166140      7.142631
  H       2.646768      6.531786      6.138980
  O       1.682296      6.574771      6.260973
  H       1.419210      5.628133      6.192971
  H       4.814456      8.454891     -0.005904
  O       5.164139      8.459964      0.910937
  H       5.471765      7.548577      1.034787
  H       0.242517      8.712426      4.203030
  O       0.957833      8.094531      3.992741
  H       1.098730      7.538772      4.785429
  H       3.600509      8.177989      1.776885
  O       2.802639      7.638763      1.956927
  H       2.349108      7.964277      2.750940
  S       5.389721      8.989085      5.952580
  H       5.284835      7.681559      5.643101
  H       4.248700      9.279183      5.293753
27
Coordinates from ORCA-job neb_109_369_CI_MEP.QMRegion E -1988.359448081671
  H       6.408991      1.033468      4.702523
  O       6.080051      1.524118      5.476325
  H       6.243689      2.452019      5.216887
  H       4.355610      5.085870      6.044111
  O       4.235312      5.761933      5.367014
  H       3.624857      5.322671      4.717262
  H       5.339156      3.561201      3.514178
  O       6.063846      3.881853      4.087171
  H       5.742385      4.743556      4.385230
  H       0.580494      7.160331      7.673900
  O      -0.335632      7.227418      7.989794
  H      -0.852261      7.171136      7.148839
  H       2.676672      6.549244      6.115979
  O       1.715086      6.566283      6.267634
  H       1.465821      5.615347      6.202687
  H       4.856194      8.425483      0.004831
  O       5.216206      8.430393      0.916677
  H       5.504279      7.513519      1.047742
  H       0.253816      8.707717      4.227962
  O       0.984478      8.104832      4.024795
  H       1.102507      7.522739      4.803661
  H       3.640091      8.176261      1.791666
  O       2.833911      7.645903      1.961255
  H       2.399750      7.963980      2.766620
  S       4.219072      9.484761      5.390932
  H       4.532070      8.189226      5.187556
  H       2.933602      9.281583      5.028481
