39
Coordinates from ORCA-job neb_35_169_CI_MEP.QMRegion E -2273.706501396732
  H      -1.576276     -0.770960     -4.611731
  O      -1.002111     -0.572253     -5.380342
  H      -0.303564     -0.005987     -5.016494
  H      -3.300531      1.610846     -4.129002
  O      -4.164527      1.157441     -3.951625
  H      -4.362091      1.277693     -2.979908
  H      -1.112718      1.616578     -3.924395
  O      -1.780568      2.219844     -4.308597
  H      -1.417964      2.596493     -5.137325
  H      -5.074004      5.827369     -5.588706
  O      -4.478821      5.047811     -5.648484
  H      -3.708467      5.291963     -6.185742
  H      -5.518414      3.542022     -5.603694
  O      -6.025990      2.834216     -5.164238
  H      -5.351729      2.324943     -4.666722
  H      -5.227584     -0.089424     -4.701940
  O      -5.828419     -0.802749     -4.987765
  H      -6.687504     -0.365561     -5.137358
  H      -7.419959      1.676556     -5.280286
  O      -7.974910      0.910925     -5.036233
  H      -8.886563      1.292079     -4.929359
  H      -4.078362     -3.086231     -4.937723
  O      -4.233340     -2.935473     -5.900545
  H      -4.829506     -2.166750     -5.891246
  H      -2.600812     -3.950295     -6.283976
  O      -1.901908     -4.542187     -5.962831
  H      -1.664527     -4.214097     -5.066361
  H      -1.299100      3.846408     -7.067299
  O      -0.827921      3.045594     -6.778691
  H      -1.059992      2.290146     -7.367370
  H      -0.076259      0.431975     -8.194535
  O      -1.008206      0.612636     -7.965121
  H      -1.131441      0.192575     -7.092533
  H      -0.405303     -3.320194     -6.856205
  O       0.196735     -2.563494     -6.816351
  H      -0.335181     -1.870191     -6.386089
  S      -2.557217     -2.555748     -9.133815
  H      -2.041293     -1.344752     -8.826996
  H      -3.769366     -2.241074     -8.634004
39
Coordinates from ORCA-job neb_35_169_CI_MEP.QMRegion E -2273.705546236807
  H      -1.570733     -0.811808     -4.601402
  O      -0.979806     -0.628562     -5.361481
  H      -0.293084     -0.051805     -4.993004
  H      -3.301041      1.584163     -4.132358
  O      -4.166770      1.132386     -3.953509
  H      -4.365374      1.257987     -2.982388
  H      -1.118837      1.595662     -3.904220
  O      -1.786862      2.196383     -4.294877
  H      -1.412670      2.583165     -5.114188
  H      -5.061999      5.817315     -5.584780
  O      -4.467994      5.037104     -5.640136
  H      -3.694733      5.279246     -6.174773
  H      -5.507415      3.523484     -5.599416
  O      -6.019456      2.820945     -5.157238
  H      -5.348466      2.308124     -4.659378
  H      -5.218489     -0.114389     -4.728583
  O      -5.812035     -0.831838     -5.019815
  H      -6.670620     -0.398949     -5.180173
  H      -7.413376      1.658032     -5.287301
  O      -7.972310      0.896395     -5.040264
  H      -8.881916      1.282819     -4.938365
  H      -4.071489     -3.104339     -4.929878
  O      -4.193840     -2.978392     -5.901638
  H      -4.775502     -2.200953     -5.935835
  H      -2.639495     -3.960812     -6.247294
  O      -1.906383     -4.538591     -5.970546
  H      -1.660226     -4.226990     -5.070086
  H      -1.286993      3.830766     -7.040080
  O      -0.810691      3.040729     -6.733469
  H      -1.033982      2.268903     -7.306536
  H      -0.059871      0.425775     -8.172594
  O      -0.979034      0.622174     -7.906281
  H      -1.095956      0.155785     -7.056090
  H      -0.416208     -3.401331     -6.802365
  O       0.178798     -2.636922     -6.828576
  H      -0.343818     -1.932172     -6.407986
  S      -3.264924     -1.739258     -9.328905
  H      -2.424086     -0.762084     -8.919084
  H      -4.213003     -1.377164     -8.440393
39
Coordinates from ORCA-job neb_35_169_CI_MEP.QMRegion E -2273.704968764550
  H      -1.571123     -0.798555     -4.601896
  O      -0.982075     -0.612909     -5.362890
  H      -0.294272     -0.036599     -4.994905
  H      -3.307226      1.585326     -4.135361
  O      -4.170630      1.130380     -3.954534
  H      -4.368100      1.257598     -2.983288
  H      -1.122321      1.600345     -3.905944
  O      -1.790989      2.199770     -4.296652
  H      -1.415872      2.589640     -5.114347
  H      -5.065559      5.809819     -5.586290
  O      -4.472607      5.028803     -5.640376
  H      -3.699934      5.270331     -6.175955
  H      -5.522748      3.511778     -5.607292
  O      -6.033829      2.813979     -5.157186
  H      -5.360857      2.303416     -4.660085
  H      -5.226156     -0.114109     -4.730476
  O      -5.817505     -0.832665     -5.023633
  H      -6.679522     -0.403217     -5.177120
  H      -7.423205      1.645405     -5.292342
  O      -7.981341      0.885335     -5.038741
  H      -8.890082      1.274058     -4.936144
  H      -4.072684     -3.096888     -4.928869
  O      -4.191509     -2.976077     -5.901948
  H      -4.780806     -2.204839     -5.943073
  H      -2.650974     -3.957997     -6.229675
  O      -1.907030     -4.529890     -5.969167
  H      -1.656713     -4.224727     -5.067252
  H      -1.281318      3.843693     -7.036699
  O      -0.807177      3.051779     -6.730532
  H      -1.028987      2.282739     -7.307954
  H      -0.060767      0.435828     -8.184258
  O      -0.974520      0.641192     -7.906641
  H      -1.086745      0.174627     -7.056515
  H      -0.423204     -3.382201     -6.789194
  O       0.173054     -2.619071     -6.824099
  H      -0.340549     -1.911637     -6.395476
  S      -3.735527     -1.143789     -9.359689
  H      -2.676704     -0.475352     -8.848698
  H      -4.442465     -1.009966     -8.218644
39
Coordinates from ORCA-job neb_35_169_CI_MEP.QMRegion E -2273.704842178678
  H      -1.567128     -0.795948     -4.597053
  O      -0.978042     -0.614031     -5.358982
  H      -0.291555     -0.033797     -4.994465
  H      -3.305842      1.586414     -4.137679
  O      -4.168407      1.130309     -3.955843
  H      -4.366816      1.259197     -2.985231
  H      -1.120269      1.604259     -3.909764
  O      -1.789719      2.203016     -4.299309
  H      -1.416322      2.593149     -5.117893
  H      -5.062936      5.814993     -5.585539
  O      -4.469559      5.034387     -5.639176
  H      -3.698347      5.274985     -6.177262
  H      -5.524330      3.518034     -5.614706
  O      -6.032987      2.821437     -5.159908
  H      -5.357719      2.312290     -4.665488
  H      -5.222312     -0.110860     -4.735587
  O      -5.813498     -0.830506     -5.027431
  H      -6.674307     -0.400280     -5.186464
  H      -7.417791      1.651348     -5.292706
  O      -7.975531      0.890783     -5.038720
  H      -8.884915      1.278102     -4.937963
  H      -4.069637     -3.089871     -4.930938
  O      -4.192290     -2.966397     -5.903566
  H      -4.787980     -2.198701     -5.937119
  H      -2.654058     -3.953084     -6.215099
  O      -1.908407     -4.525870     -5.962660
  H      -1.654551     -4.225794     -5.059283
  H      -1.283009      3.844238     -7.039866
  O      -0.807205      3.052977     -6.734373
  H      -1.030142      2.283825     -7.310993
  H      -0.054563      0.433608     -8.184110
  O      -0.968116      0.639226     -7.906525
  H      -1.081531      0.173979     -7.056359
  H      -0.431651     -3.385223     -6.769398
  O       0.165547     -2.623542     -6.821139
  H      -0.339620     -1.911044     -6.390133
  S      -4.103312     -0.444648     -9.255964
  H      -2.850551     -0.209678     -8.804619
  H      -4.539228     -0.791966     -8.027253
39
Coordinates from ORCA-job neb_35_169_CI_MEP.QMRegion E -2273.704834966219
  H      -1.568640     -0.793153     -4.597943
  O      -0.981934     -0.612724     -5.362053
  H      -0.296768     -0.028317     -5.001675
  H      -3.314641      1.581905     -4.144168
  O      -4.174710      1.122791     -3.958559
  H      -4.371166      1.255257     -2.988286
  H      -1.126661      1.603331     -3.908125
  O      -1.796489      2.201281     -4.297746
  H      -1.423640      2.589440     -5.117460
  H      -5.064658      5.806949     -5.585827
  O      -4.472951      5.025278     -5.637435
  H      -3.701986      5.264443     -6.176181
  H      -5.540691      3.498555     -5.624728
  O      -6.048678      2.812819     -5.154151
  H      -5.369587      2.301745     -4.667106
  H      -5.225731     -0.116636     -4.746458
  O      -5.819835     -0.837827     -5.029260
  H      -6.681222     -0.407571     -5.186148
  H      -7.422163      1.640143     -5.293071
  O      -7.981654      0.880584     -5.037811
  H      -8.889657      1.270595     -4.936678
  H      -4.070495     -3.089853     -4.931074
  O      -4.196712     -2.963235     -5.903267
  H      -4.793010     -2.194884     -5.929261
  H      -2.656986     -3.949186     -6.206525
  O      -1.911320     -4.523537     -5.958400
  H      -1.655101     -4.226061     -5.054309
  H      -1.286638      3.840630     -7.035641
  O      -0.808026      3.049920     -6.732986
  H      -1.032129      2.282773     -7.311733
  H      -0.041234      0.437860     -8.188389
  O      -0.959438      0.641567     -7.925431
  H      -1.086107      0.176289     -7.078138
  H      -0.437218     -3.382226     -6.759933
  O       0.160182     -2.621274     -6.818657
  H      -0.340562     -1.906658     -6.384500
  S      -4.314750      0.205276     -8.889295
  H      -3.005432     -0.059473     -8.684506
  H      -4.709121     -0.648770     -7.921007
39
Coordinates from ORCA-job neb_35_169_CI_MEP.QMRegion E -2273.705465557051
  H      -1.578428     -0.789432     -4.590635
  O      -0.993831     -0.607738     -5.356769
  H      -0.306268     -0.025946     -4.997767
  H      -3.328192      1.577008     -4.148086
  O      -4.185908      1.115339     -3.958350
  H      -4.379033      1.250861     -2.987891
  H      -1.137428      1.601163     -3.903224
  O      -1.808361      2.197782     -4.292367
  H      -1.434232      2.588936     -5.110302
  H      -5.069883      5.802766     -5.581140
  O      -4.478305      5.020304     -5.634357
  H      -3.708933      5.260106     -6.173178
  H      -5.556332      3.487871     -5.631056
  O      -6.063982      2.810109     -5.149340
  H      -5.382277      2.297385     -4.667749
  H      -5.240110     -0.112637     -4.743053
  O      -5.836247     -0.832352     -5.027778
  H      -6.700110     -0.401531     -5.171931
  H      -7.429268      1.641006     -5.286406
  O      -7.988408      0.879374     -5.035062
  H      -8.896891      1.268439     -4.932637
  H      -4.086458     -3.081919     -4.927236
  O      -4.212319     -2.956525     -5.899539
  H      -4.811927     -2.191146     -5.928227
  H      -2.675300     -3.947236     -6.192309
  O      -1.928402     -4.521873     -5.948562
  H      -1.670204     -4.228094     -5.043411
  H      -1.293162      3.836459     -7.022427
  O      -0.810224      3.047931     -6.720238
  H      -1.041109      2.278296     -7.292736
  H      -0.065622      0.432990     -8.180729
  O      -0.981393      0.641372     -7.916010
  H      -1.111119      0.171635     -7.071341
  H      -0.465943     -3.380838     -6.732426
  O       0.134134     -2.622904     -6.800770
  H      -0.359237     -1.904701     -6.362194
  S      -4.461272      0.676255     -8.478674
  H      -3.196298      0.208321     -8.529759
  H      -4.868562     -0.323573     -7.668000
39
Coordinates from ORCA-job neb_35_169_CI_MEP.QMRegion E -2273.706205271597
  H      -1.568815     -0.791801     -4.611303
  O      -0.996131     -0.607073     -5.384332
  H      -0.313099     -0.011739     -5.037176
  H      -3.354184      1.556694     -4.162012
  O      -4.207221      1.092065     -3.956466
  H      -4.386553      1.232572     -2.983657
  H      -1.154094      1.590353     -3.899956
  O      -1.831028      2.181281     -4.288248
  H      -1.460041      2.578074     -5.104417
  H      -5.092175      5.769613     -5.568707
  O      -4.503059      4.985632     -5.621466
  H      -3.733995      5.226160     -6.160163
  H      -5.591775      3.432056     -5.621604
  O      -6.102823      2.769653     -5.123579
  H      -5.416314      2.256513     -4.647371
  H      -5.238020     -0.137033     -4.721316
  O      -5.825392     -0.852690     -5.037552
  H      -6.699231     -0.434844     -5.156618
  H      -7.453802      1.588891     -5.278136
  O      -8.012995      0.827254     -5.026057
  H      -8.918147      1.222341     -4.921813
  H      -4.063793     -3.099879     -4.938402
  O      -4.177359     -2.988299     -5.914147
  H      -4.760124     -2.213267     -5.967746
  H      -2.645270     -3.960174     -6.216551
  O      -1.896971     -4.532204     -5.969663
  H      -1.639742     -4.231934     -5.067155
  H      -1.296614      3.844006     -6.999828
  O      -0.812025      3.052729     -6.706814
  H      -1.054512      2.289268     -7.282369
  H      -0.099197      0.459592     -8.213082
  O      -1.014809      0.670073     -7.951574
  H      -1.154654      0.176338     -7.123343
  H      -0.432529     -3.371900     -6.777865
  O       0.167264     -2.612503     -6.826807
  H      -0.335101     -1.896426     -6.395968
  S      -4.510995      1.374007     -7.810810
  H      -3.469236      0.676533     -8.308291
  H      -5.036962      0.284042     -7.207399
