33
Coordinates from ORCA-job neb_64_126_CI_MEP.QMRegion E -2131.024120631446
  H       4.418083     -2.346741      5.559846
  O       4.119632     -2.816302      6.370706
  H       4.489861     -3.711254      6.242835
  H       1.990964     -0.848602      5.130020
  O       1.480640     -1.431887      5.725301
  H       1.489720     -1.072313      6.629119
  H      -4.038275      1.241688      6.910179
  O      -3.847672      1.710169      7.763409
  H      -4.728499      2.082697      8.040860
  H       4.315521     -0.800681      6.923346
  O       4.308391      0.142730      7.129697
  H       5.038911      0.540719      6.626222
  H      -0.503129      2.073157      7.657320
  O      -1.159623      2.012124      6.943783
  H      -2.021906      2.014351      7.371457
  H      -2.520791      3.065783     10.501204
  O      -2.298648      2.142665     10.276200
  H      -2.907758      1.927541      9.556445
  H      -0.072279      3.485455      8.999165
  O       0.284943      2.622851      9.298282
  H      -0.479256      2.257287      9.780516
  H       1.880594      2.172300      8.389944
  O       2.652629      2.306189      7.813953
  H       3.020814      1.425316      7.639879
  H       0.922519     -0.383582      8.955537
  O       0.574458     -0.349900      8.057531
  H      -0.376940     -0.565093      8.102709
  H      -2.741153     -1.561514      7.653644
  O      -2.212675     -0.767558      7.846020
  H      -2.854981     -0.114278      8.145302
  S       2.878299     -0.360158     10.477135
  H       3.679828     -0.082025      9.422011
  H       3.025106     -1.689577     10.299417
33
Coordinates from ORCA-job neb_64_126_CI_MEP.QMRegion E -2131.023069158377
  H       4.438181     -2.324623      5.571230
  O       4.140176     -2.804154      6.376724
  H       4.504793     -3.699202      6.236404
  H       2.002160     -0.847715      5.124665
  O       1.486542     -1.428087      5.718600
  H       1.517544     -1.080550      6.625356
  H      -4.038046      1.228532      6.917827
  O      -3.846037      1.693701      7.772758
  H      -4.725736      2.067877      8.048933
  H       4.333838     -0.764991      6.972684
  O       4.315230      0.185462      7.137595
  H       5.046685      0.568494      6.624745
  H      -0.510838      2.056295      7.670264
  O      -1.163727      2.005000      6.952166
  H      -2.027509      2.000805      7.377233
  H      -2.544961      3.028582     10.528072
  O      -2.325869      2.100523     10.322891
  H      -2.929353      1.873601      9.601981
  H      -0.100525      3.459308      9.021369
  O       0.251484      2.593997      9.317948
  H      -0.509952      2.228039      9.804414
  H       1.881391      2.158018      8.405769
  O       2.653084      2.319035      7.838593
  H       3.072770      1.455339      7.687380
  H       0.803838     -0.375761      8.987493
  O       0.553634     -0.387384      8.056215
  H      -0.402767     -0.587973      8.032415
  H      -2.734929     -1.582831      7.624484
  O      -2.207541     -0.784891      7.803926
  H      -2.846603     -0.134366      8.114723
  S       2.221031     -0.405799     10.917598
  H       3.232959     -0.353171     10.021975
  H       2.191062     -1.754856     10.883093
33
Coordinates from ORCA-job neb_64_126_CI_MEP.QMRegion E -2131.023052120467
  H       4.443638     -2.316685      5.584300
  O       4.147564     -2.800506      6.387907
  H       4.509587     -3.695653      6.243090
  H       2.008063     -0.850454      5.133888
  O       1.483792     -1.424153      5.726610
  H       1.544283     -1.092736      6.637316
  H      -4.028549      1.223306      6.930930
  O      -3.833031      1.685046      7.786292
  H      -4.711475      2.059041      8.063675
  H       4.386628     -0.765570      7.031669
  O       4.353306      0.191105      7.150164
  H       5.079954      0.563398      6.623565
  H      -0.483273      2.041875      7.675576
  O      -1.147567      1.998479      6.967561
  H      -2.004858      2.002974      7.405991
  H      -2.506307      3.024636     10.568326
  O      -2.274861      2.095002     10.383190
  H      -2.885743      1.842955      9.677960
  H      -0.079578      3.466183      9.023387
  O       0.293334      2.611824      9.325518
  H      -0.448927      2.238596      9.833329
  H       1.942098      2.176872      8.420553
  O       2.697628      2.334628      7.832293
  H       3.140489      1.476855      7.713129
  H       0.811254     -0.371293      9.041591
  O       0.599223     -0.408237      8.101099
  H      -0.355173     -0.612540      8.057694
  H      -2.710466     -1.604043      7.658169
  O      -2.170550     -0.821292      7.866388
  H      -2.807656     -0.151767      8.138559
  S       1.731254     -0.427860     11.247020
  H       2.872539     -0.829804     10.645528
  H       1.299886     -1.697204     11.398341
33
Coordinates from ORCA-job neb_64_126_CI_MEP.QMRegion E -2131.023071822941
  H       4.446926     -2.311772      5.592018
  O       4.152891     -2.800333      6.393452
  H       4.513377     -3.695045      6.243312
  H       2.012343     -0.852560      5.126278
  O       1.485448     -1.421493      5.721893
  H       1.561812     -1.089363      6.630880
  H      -4.024775      1.224505      6.932051
  O      -3.827959      1.683337      7.788640
  H      -4.706398      2.056211      8.067234
  H       4.386510     -0.757183      7.050121
  O       4.320565      0.203113      7.102453
  H       5.069784      0.564473      6.601251
  H      -0.470777      2.037798      7.673003
  O      -1.141926      1.997101      6.971181
  H      -1.995361      2.010928      7.416513
  H      -2.497122      3.023314     10.580934
  O      -2.263354      2.092367     10.403550
  H      -2.872910      1.833823      9.699637
  H      -0.074761      3.472655      9.024078
  O       0.296830      2.620193      9.332853
  H      -0.448335      2.250355      9.838529
  H       1.970261      2.205571      8.445667
  O       2.714007      2.362980      7.843262
  H       3.157524      1.505069      7.726283
  H       0.853495     -0.335667      9.032467
  O       0.632862     -0.381261      8.094311
  H      -0.317971     -0.599906      8.062809
  H      -2.696587     -1.611127      7.687606
  O      -2.152224     -0.839365      7.924150
  H      -2.790527     -0.151223      8.142903
  S       1.503309     -0.484749     11.329783
  H       2.233230     -1.564015     10.974179
  H       0.413581     -1.235287     11.591624
33
Coordinates from ORCA-job neb_64_126_CI_MEP.QMRegion E -2131.023057909839
  H       4.428805     -2.311821      5.580433
  O       4.134175     -2.806521      6.377833
  H       4.502929     -3.697530      6.225845
  H       2.005819     -0.853409      5.099267
  O       1.482864     -1.424457      5.697591
  H       1.559637     -1.085191      6.603614
  H      -4.034732      1.231156      6.914763
  O      -3.839746      1.689230      7.773109
  H      -4.719413      2.062546      8.050645
  H       4.337116     -0.759901      7.022369
  O       4.237889      0.198301      7.002114
  H       5.020440      0.552961      6.550236
  H      -0.492864      2.046486      7.659678
  O      -1.160670      1.999919      6.954839
  H      -2.017295      2.015637      7.393369
  H      -2.532241      3.019361     10.547094
  O      -2.309384      2.088265     10.356561
  H      -2.913984      1.847329      9.641174
  H      -0.090626      3.468153      9.012865
  O       0.256829      2.604481      9.319916
  H      -0.510788      2.245583      9.800362
  H       1.937743      2.189376      8.425928
  O       2.691880      2.359912      7.840925
  H       3.125065      1.499629      7.700954
  H       0.849229     -0.348463      8.979953
  O       0.624338     -0.344089      8.041845
  H      -0.324931     -0.568596      8.006581
  H      -2.706408     -1.603036      7.666229
  O      -2.167015     -0.826722      7.899861
  H      -2.810476     -0.138101      8.101642
  S       1.201722     -0.673005     11.307943
  H       1.165660     -1.992310     11.021177
  H      -0.133754     -0.615876     11.494330
33
Coordinates from ORCA-job neb_64_126_CI_MEP.QMRegion E -2131.023604085247
  H       4.419863     -2.311446      5.575660
  O       4.122561     -2.807042      6.371414
  H       4.495077     -3.696905      6.222114
  H       2.002198     -0.851523      5.094949
  O       1.477376     -1.421040      5.693639
  H       1.562284     -1.086034      6.599927
  H      -4.043920      1.232118      6.910336
  O      -3.848488      1.689283      7.769319
  H      -4.728105      2.065669      8.045706
  H       4.312225     -0.764532      7.019545
  O       4.201647      0.191348      6.969107
  H       4.995805      0.543868      6.536726
  H      -0.516200      2.054327      7.661600
  O      -1.177004      1.995869      6.950666
  H      -2.038186      2.010038      7.380559
  H      -2.552861      3.019183     10.541026
  O      -2.336184      2.086568     10.349260
  H      -2.937025      1.851822      9.628240
  H      -0.106569      3.467320      9.011217
  O       0.229723      2.597642      9.314737
  H      -0.544408      2.243812      9.788346
  H       1.906342      2.170916      8.410639
  O       2.668877      2.348207      7.838917
  H       3.097843      1.487484      7.687717
  H       0.816160     -0.380447      8.985492
  O       0.617864     -0.334020      8.043098
  H      -0.332261     -0.549975      7.984798
  H      -2.720873     -1.602101      7.682746
  O      -2.184311     -0.831848      7.943316
  H      -2.829789     -0.135448      8.110641
  S       0.667735     -0.937995     11.323768
  H      -0.044155     -1.950945     10.787021
  H      -0.434752     -0.177757     11.481551
33
Coordinates from ORCA-job neb_64_126_CI_MEP.QMRegion E -2131.028008003654
  H       4.442574     -2.315353      5.589353
  O       4.143038     -2.805485      6.387587
  H       4.507051     -3.699733      6.241915
  H       2.021596     -0.852584      5.128081
  O       1.477504     -1.409827      5.720624
  H       1.629486     -1.141077      6.637902
  H      -4.030301      1.237575      6.910469
  O      -3.831778      1.685041      7.773786
  H      -4.711675      2.055437      8.056042
  H       4.416470     -0.796323      7.072530
  O       4.301541      0.160041      7.033578
  H       5.068878      0.521760      6.561853
  H      -0.462326      2.058495      7.679260
  O      -1.131648      1.982870      6.976187
  H      -1.986213      2.015231      7.417765
  H      -2.500914      3.046412     10.552972
  O      -2.271128      2.117567     10.354748
  H      -2.888666      1.866462      9.654762
  H      -0.053199      3.476141      9.009516
  O       0.326730      2.616343      9.287395
  H      -0.400947      2.230639      9.801074
  H       1.991837      2.148508      8.401628
  O       2.735350      2.319804      7.804233
  H       3.192534      1.467607      7.691019
  H       0.750213     -0.653885      9.158514
  O       0.682204     -0.488106      8.212888
  H      -0.263533     -0.635610      8.034734
  H      -2.730432     -1.621816      7.682838
  O      -2.182394     -0.860078      7.953424
  H      -2.812593     -0.138035      8.068228
  S      -0.940333     -1.090227     11.199069
  H      -1.654481     -1.256992     10.059250
  H      -1.406399      0.167716     11.340239
