42
Coordinates from ORCA-job neb_150_271_CI_MEP.QMRegion E -2345.008109002271
  H       4.364671     -2.375838      5.552910
  O       4.049420     -2.869436      6.341700
  H       4.440547     -3.754185      6.213604
  H       1.642008      3.418004      6.883228
  O       1.055906      3.977668      6.347050
  H       0.261925      4.117224      6.915167
  H       4.965996     -2.133133      3.528954
  O       4.978092     -1.412817      4.195267
  H       4.134673     -0.892018      4.037186
  H       3.898432     -1.111532      7.230130
  O       3.894212     -0.143629      7.158651
  H       4.657403      0.064728      6.610029
  H       6.587937      1.161794      4.712544
  O       6.208444      1.721327      5.420610
  H       6.320932      2.633726      5.043526
  H       7.563649     -0.472507      2.987181
  O       6.863965      0.138889      3.246656
  H       6.150255     -0.480603      3.563786
  H       7.600967     -2.627377      4.152155
  O       7.763558     -2.668990      3.191828
  H       7.276571     -3.473480      2.940118
  H       1.907663      2.193616      8.567803
  O       2.634913      2.224605      7.927663
  H       2.933020      1.298605      7.835737
  H       4.453770      2.019518      5.179459
  O       3.512093      2.239011      5.032162
  H       3.074862      2.149712      5.888577
  H       4.272475      4.862046      6.085570
  O       4.258540      5.590841      5.454185
  H       3.633359      5.257834      4.758159
  H       5.426780      3.671204      3.397662
  O       6.131480      3.982171      4.000465
  H       5.717307      4.743531      4.440888
  H       7.207533     -2.352984      6.543375
  O       7.366491     -3.102524      5.943350
  H       6.607651     -3.692143      6.031361
  H       2.768528      6.645203      6.145694
  O       1.805630      6.689736      6.237831
  H       1.528062      5.754308      6.151682
  S       7.576807     -0.295229      7.787578
  H       7.092767      0.680157      6.970486
  H       8.814324     -0.191116      7.257291
42
Coordinates from ORCA-job neb_150_271_CI_MEP.QMRegion E -2345.004138110235
  H       4.365358     -2.376657      5.567839
  O       4.050353     -2.875998      6.354221
  H       4.433888     -3.761587      6.217402
  H       1.640678      3.392348      6.853502
  O       1.051012      3.965247      6.334744
  H       0.262488      4.101970      6.909346
  H       4.963315     -2.133215      3.533566
  O       4.980345     -1.419538      4.206198
  H       4.139784     -0.891426      4.053092
  H       3.834533     -1.123018      7.238762
  O       3.853318     -0.161340      7.112726
  H       4.725213      0.010527      6.743144
  H       6.609250      1.253138      4.746425
  O       6.187831      1.883598      5.359605
  H       6.315342      2.757482      4.899362
  H       7.566697     -0.474984      2.976599
  O       6.875902      0.140947      3.248265
  H       6.161491     -0.469479      3.575388
  H       7.599450     -2.607845      4.168042
  O       7.797396     -2.687311      3.220340
  H       7.300400     -3.488267      2.973745
  H       1.910634      2.186072      8.551424
  O       2.629930      2.210490      7.902615
  H       2.913901      1.280693      7.801002
  H       4.471866      2.047192      5.122808
  O       3.519776      2.247906      4.990007
  H       3.100060      2.155154      5.853706
  H       4.351878      4.886560      6.004331
  O       4.293368      5.617544      5.378239
  H       3.655007      5.265479      4.701865
  H       5.455058      3.724288      3.306244
  O       6.179947      4.067618      3.867066
  H       5.761774      4.822587      4.314298
  H       7.048623     -2.497527      6.658125
  O       7.310144     -3.176026      6.025391
  H       6.591148     -3.822626      6.030824
  H       2.775209      6.622557      6.099309
  O       1.815020      6.668358      6.218248
  H       1.532368      5.734725      6.129092
  S       7.284090      0.404729      8.171583
  H       6.633352      1.306945      7.398884
  H       8.436300      0.677036      7.523963
42
Coordinates from ORCA-job neb_150_271_CI_MEP.QMRegion E -2345.003143714235
  H       4.372220     -2.348587      5.599594
  O       4.047725     -2.856479      6.377810
  H       4.426661     -3.741653      6.233757
  H       1.656770      3.407676      6.868587
  O       1.061060      3.969524      6.344703
  H       0.272223      4.105745      6.919240
  H       4.961299     -2.123000      3.545569
  O       4.985120     -1.416437      4.224160
  H       4.148727     -0.880805      4.077726
  H       3.825964     -1.073909      7.274311
  O       3.896662     -0.114483      7.154631
  H       4.847803      0.051177      7.129921
  H       6.621342      1.334454      4.742118
  O       6.237004      1.980049      5.361439
  H       6.357590      2.840981      4.884181
  H       7.565086     -0.444525      3.002069
  O       6.868049      0.167402      3.265397
  H       6.159198     -0.444262      3.601968
  H       7.588672     -2.592720      4.190482
  O       7.798562     -2.676606      3.246881
  H       7.297923     -3.474376      2.997494
  H       1.921897      2.210355      8.589738
  O       2.653308      2.237909      7.954190
  H       2.926717      1.304949      7.840031
  H       4.501987      2.067064      5.132309
  O       3.545196      2.252443      4.998015
  H       3.132667      2.145057      5.862732
  H       4.366859      4.917315      5.997921
  O       4.276577      5.652426      5.380652
  H       3.644035      5.285052      4.707005
  H       5.465408      3.788834      3.298914
  O       6.192311      4.162604      3.834925
  H       5.761397      4.907246      4.286012
  H       6.960699     -2.596626      6.706034
  O       7.279905     -3.240788      6.067131
  H       6.581512     -3.910001      6.025516
  H       2.772722      6.636624      6.110742
  O       1.811726      6.680869      6.227694
  H       1.532761      5.746022      6.140665
  S       7.110141      0.748138      8.408118
  H       6.258000      1.756370      8.134750
  H       7.882572      1.103017      7.361240
42
Coordinates from ORCA-job neb_150_271_CI_MEP.QMRegion E -2345.003673229667
  H       4.380474     -2.345297      5.577379
  O       4.053907     -2.842118      6.361672
  H       4.433019     -3.728836      6.229243
  H       1.656546      3.412043      6.868058
  O       1.061092      3.971409      6.341302
  H       0.271329      4.108509      6.914618
  H       4.963298     -2.122790      3.529274
  O       4.991375     -1.411796      4.203464
  H       4.152601     -0.878692      4.062672
  H       3.890696     -1.034614      7.221332
  O       3.901200     -0.074645      7.085711
  H       4.834190      0.155779      7.007902
  H       6.652068      1.278491      4.707400
  O       6.256867      1.904850      5.342578
  H       6.362806      2.779931      4.884076
  H       7.577549     -0.456745      2.973963
  O       6.880860      0.152143      3.244903
  H       6.170048     -0.460933      3.577109
  H       7.591130     -2.588473      4.176065
  O       7.799121     -2.679872      3.233388
  H       7.300598     -3.480659      2.989528
  H       1.923076      2.218297      8.588731
  O       2.656342      2.247838      7.954916
  H       2.921356      1.314272      7.828519
  H       4.500739      2.046055      5.117515
  O       3.551286      2.256142      4.987146
  H       3.136614      2.152399      5.851193
  H       4.372171      4.942804      5.988053
  O       4.289944      5.666435      5.356422
  H       3.653818      5.293534      4.689059
  H       5.453826      3.747069      3.309765
  O       6.184682      4.101131      3.855093
  H       5.771717      4.862541      4.294825
  H       7.023232     -2.673632      6.756278
  O       7.284477     -3.266021      6.045834
  H       6.582179     -3.931340      6.007909
  H       2.776858      6.644261      6.093915
  O       1.817202      6.682168      6.222822
  H       1.539929      5.747242      6.133183
  S       7.068023      1.459574      8.559504
  H       5.863861      2.069098      8.556766
  H       7.264564      1.790284      7.260122
42
Coordinates from ORCA-job neb_150_271_CI_MEP.QMRegion E -2345.002946141615
  H       4.382056     -2.356755      5.561212
  O       4.062624     -2.842586      6.355059
  H       4.438187     -3.732054      6.229695
  H       1.652834      3.412973      6.875593
  O       1.060739      3.971818      6.345176
  H       0.269729      4.111771      6.916698
  H       4.969070     -2.121486      3.527840
  O       4.991536     -1.407313      4.199516
  H       4.150343     -0.878231      4.051847
  H       3.901307     -1.057806      7.200389
  O       3.878889     -0.093888      7.099603
  H       4.744707      0.147090      6.753724
  H       6.652494      1.273954      4.697129
  O       6.221734      1.880907      5.328872
  H       6.331762      2.768467      4.892175
  H       7.597191     -0.445818      2.978490
  O       6.892328      0.155187      3.245177
  H       6.184793     -0.462836      3.571882
  H       7.586869     -2.597929      4.181794
  O       7.791369     -2.681540      3.237597
  H       7.297677     -3.484689      2.991269
  H       1.921187      2.220434      8.592969
  O       2.653320      2.241070      7.957010
  H       2.901712      1.304809      7.826206
  H       4.488120      2.060371      5.103321
  O       3.534675      2.256038      4.982567
  H       3.129856      2.181619      5.854273
  H       4.412906      5.013454      5.991090
  O       4.297893      5.710284      5.334943
  H       3.659003      5.305972      4.689822
  H       5.445328      3.753345      3.315070
  O       6.176474      4.092219      3.869485
  H       5.780704      4.872548      4.291725
  H       6.988068     -2.671995      6.743583
  O       7.274683     -3.271712      6.049883
  H       6.581336     -3.946603      6.008290
  H       2.776886      6.657440      6.089913
  O       1.817657      6.684769      6.225383
  H       1.547129      5.747921      6.138021
  S       6.763339      2.429914      8.624800
  H       5.416470      2.357355      8.579454
  H       6.860749      2.213105      7.289493
42
Coordinates from ORCA-job neb_150_271_CI_MEP.QMRegion E -2345.004456680645
  H       4.375666     -2.348730      5.519456
  O       4.063777     -2.826446      6.321283
  H       4.435552     -3.718701      6.201901
  H       1.634368      3.440774      6.853079
  O       1.039532      3.995827      6.322629
  H       0.249963      4.131886      6.897213
  H       4.972160     -2.105216      3.505384
  O       4.990246     -1.388648      4.174739
  H       4.145106     -0.863883      4.023260
  H       3.882012     -1.060840      7.169210
  O       3.873547     -0.091750      7.130277
  H       4.625956      0.148644      6.579732
  H       6.632501      1.309552      4.657862
  O       6.193984      1.902641      5.296710
  H       6.299274      2.799159      4.876311
  H       7.599171     -0.422005      2.959817
  O       6.893967      0.174481      3.234399
  H       6.186969     -0.446038      3.556670
  H       7.565217     -2.592395      4.164458
  O       7.765972     -2.671665      3.218718
  H       7.277520     -3.477373      2.971921
  H       1.883898      2.230770      8.555579
  O       2.608027      2.241614      7.909930
  H       2.839591      1.302472      7.772350
  H       4.475408      2.100278      5.082852
  O       3.514910      2.259343      4.960523
  H       3.116202      2.241524      5.837881
  H       4.463872      5.092448      6.003553
  O       4.286475      5.761065      5.329842
  H       3.652835      5.317383      4.707755
  H       5.421215      3.789886      3.308103
  O       6.150019      4.131541      3.863488
  H       5.754408      4.915508      4.279751
  H       6.915079     -2.599018      6.661823
  O       7.252442     -3.232247      6.022301
  H       6.569974     -3.917910      5.981546
  H       2.766734      6.673491      6.079711
  O       1.807432      6.703284      6.220161
  H       1.531830      5.769109      6.122770
  S       6.238501      3.331866      8.326811
  H       5.068172      2.665825      8.418979
  H       6.629588      2.595745      7.260238
42
Coordinates from ORCA-job neb_150_271_CI_MEP.QMRegion E -2345.009783746408
  H       4.391251     -2.355412      5.503739
  O       4.071974     -2.831302      6.304238
  H       4.445362     -3.723858      6.189912
  H       1.637611      3.400488      6.871103
  O       1.054446      3.970064      6.346175
  H       0.264507      4.114405      6.918238
  H       4.982237     -2.101440      3.498065
  O       4.998083     -1.386383      4.169268
  H       4.152595     -0.863160      4.017203
  H       3.927463     -1.115893      7.188648
  O       3.960161     -0.146082      7.235401
  H       4.651652      0.112112      6.616623
  H       6.649903      1.350595      4.730851
  O       6.196021      1.963332      5.336627
  H       6.287824      2.842103      4.872390
  H       7.609203     -0.396231      2.953403
  O       6.904600      0.194197      3.242242
  H       6.203081     -0.431857      3.562233
  H       7.562113     -2.600124      4.146774
  O       7.759616     -2.680659      3.201328
  H       7.275818     -3.490208      2.957577
  H       1.883737      2.150113      8.577703
  O       2.603260      2.159170      7.927130
  H       2.876045      1.226151      7.811924
  H       4.482229      2.101417      5.100788
  O       3.517707      2.238689      4.975943
  H       3.122511      2.224647      5.854478
  H       4.504776      5.239761      5.994419
  O       4.296184      5.850704      5.264314
  H       3.661543      5.355456      4.688045
  H       5.413799      3.797382      3.304870
  O       6.132353      4.153472      3.864123
  H       5.717174      4.934308      4.272161
  H       6.957719     -2.652311      6.687544
  O       7.267798     -3.265141      6.015589
  H       6.584921     -3.950642      5.980151
  H       2.778782      6.676587      6.054407
  O       1.822414      6.693134      6.228641
  H       1.558277      5.755964      6.141248
  S       5.427989      4.121400      7.939231
  H       4.357008      3.327768      8.184567
  H       6.051138      3.153682      7.231445
