33
Coordinates from ORCA-job neb_35_143_CI_MEP.QMRegion E -2131.030913025832
  H      -1.557456     -0.755635     -4.563282
  O      -1.002608     -0.529689     -5.336928
  H      -0.292985      0.033286     -4.976676
  H       2.295550     -4.579521     -6.765564
  O       2.132062     -5.019447     -5.919463
  H       1.851180     -4.286672     -5.314466
  H       3.388495     -2.653391     -8.506724
  O       3.296156     -3.166935     -7.689875
  H       4.179316     -3.117733     -7.278211
  H       3.316640     -0.843155     -5.669984
  O       2.463821     -0.920282     -6.152219
  H       2.444456     -1.821711     -6.513762
  H       2.086879     -0.109244     -7.564859
  O       1.695764      0.346071     -8.357423
  H       2.303229      0.139451     -9.073045
  H       5.017571     -1.353392     -9.344304
  O       4.101803     -1.111145     -9.646858
  H       4.155477     -1.175664    -10.604417
  H      -4.111648     -3.057247     -4.938613
  O      -4.308819     -2.863545     -5.883406
  H      -4.910515     -2.105070     -5.814775
  H      -2.623221     -3.949652     -6.328665
  O      -1.930654     -4.536003     -5.988824
  H      -1.709346     -4.207992     -5.089184
  H      -0.268718      0.404743     -8.134545
  O      -1.191152      0.593317     -7.884196
  H      -1.283092      0.216687     -6.987850
  H      -0.464304     -3.296253     -6.815245
  O       0.134714     -2.537065     -6.772900
  H      -0.395613     -1.844494     -6.326851
  S      -2.556725     -2.451913     -9.108982
  H      -2.123916     -1.228448     -8.712197
  H      -3.838860     -2.168753     -8.805084
33
Coordinates from ORCA-job neb_35_143_CI_MEP.QMRegion E -2131.030161898962
  H      -1.558039     -0.701015     -4.583421
  O      -1.039355     -0.467811     -5.378720
  H      -0.318422      0.102605     -5.050183
  H       2.305611     -4.564135     -6.727411
  O       2.132199     -5.014397     -5.888449
  H       1.856897     -4.283725     -5.276412
  H       3.379951     -2.651099     -8.456194
  O       3.286095     -3.158486     -7.634837
  H       4.170617     -3.104469     -7.224823
  H       3.323947     -0.808216     -5.681166
  O       2.470548     -0.886887     -6.162049
  H       2.438893     -1.799401     -6.493859
  H       2.084065     -0.106825     -7.591648
  O       1.695167      0.346806     -8.386086
  H       2.293455      0.125963     -9.105112
  H       5.005681     -1.393743     -9.339826
  O       4.080510     -1.185808     -9.639646
  H       4.110930     -1.342995    -10.587392
  H      -4.102931     -3.042112     -4.938549
  O      -4.286432     -2.862248     -5.889361
  H      -4.886437     -2.101039     -5.841406
  H      -2.644897     -3.951145     -6.264013
  O      -1.926889     -4.524998     -5.959740
  H      -1.695695     -4.211986     -5.055772
  H      -0.254236      0.439637     -8.186423
  O      -1.188725      0.631345     -7.990986
  H      -1.347315      0.213520     -7.126755
  H      -0.481461     -3.245288     -6.775131
  O       0.115453     -2.483915     -6.735006
  H      -0.406753     -1.788037     -6.277181
  S      -2.103133     -2.895337     -9.467896
  H      -1.459518     -1.754903     -9.129254
  H      -3.300823     -2.374431     -9.129887
33
Coordinates from ORCA-job neb_35_143_CI_MEP.QMRegion E -2131.030085424405
  H      -1.554411     -0.680827     -4.591639
  O      -1.041700     -0.447950     -5.390751
  H      -0.320508      0.127548     -5.069722
  H       2.299758     -4.550236     -6.734776
  O       2.129874     -5.004408     -5.897495
  H       1.858794     -4.276668     -5.280237
  H       3.391262     -2.618452     -8.463296
  O       3.285900     -3.124752     -7.641895
  H       4.169271     -3.080921     -7.226743
  H       3.319552     -0.796222     -5.687279
  O       2.467888     -0.879770     -6.170523
  H       2.456511     -1.787228     -6.519023
  H       2.079044     -0.090717     -7.612685
  O       1.688397      0.358271     -8.407201
  H       2.302669      0.162334     -9.120157
  H       5.014332     -1.377786     -9.351859
  O       4.089918     -1.164381     -9.650037
  H       4.114520     -1.327687    -10.597043
  H      -4.111419     -3.030647     -4.932324
  O      -4.280521     -2.862570     -5.887581
  H      -4.877590     -2.098299     -5.860628
  H      -2.673115     -3.942189     -6.241560
  O      -1.931243     -4.498978     -5.959044
  H      -1.708589     -4.203170     -5.046566
  H      -0.319936      0.450798     -8.239277
  O      -1.237843      0.667260     -8.003995
  H      -1.379520      0.233342     -7.145751
  H      -0.532575     -3.251133     -6.681950
  O       0.070503     -2.492108     -6.731741
  H      -0.415637     -1.768634     -6.272399
  S      -1.806152     -2.923125     -9.712385
  H      -0.789131     -2.385674     -9.000225
  H      -2.655384     -1.962570     -9.292190
33
Coordinates from ORCA-job neb_35_143_CI_MEP.QMRegion E -2131.030090456984
  H      -1.550642     -0.684723     -4.593226
  O      -1.037195     -0.452982     -5.391995
  H      -0.318504      0.125369     -5.070895
  H       2.299640     -4.550962     -6.734074
  O       2.128540     -5.004106     -5.896617
  H       1.857394     -4.275152     -5.280281
  H       3.400266     -2.615621     -8.462423
  O       3.288759     -3.126224     -7.643876
  H       4.170407     -3.085242     -7.224282
  H       3.318908     -0.797230     -5.686082
  O       2.467634     -0.884650     -6.169456
  H       2.463531     -1.790841     -6.521892
  H       2.076848     -0.093568     -7.609421
  O       1.680200      0.354983     -8.401108
  H       2.284593      0.154590     -9.121078
  H       5.011950     -1.383546     -9.350892
  O       4.085175     -1.175876     -9.646128
  H       4.105092     -1.347045    -10.591874
  H      -4.116767     -3.028770     -4.926424
  O      -4.275954     -2.868375     -5.884872
  H      -4.867211     -2.099495     -5.872780
  H      -2.690258     -3.931381     -6.212307
  O      -1.939158     -4.490206     -5.956743
  H      -1.702125     -4.204781     -5.044003
  H      -0.324688      0.440479     -8.236068
  O      -1.242933      0.659567     -8.003323
  H      -1.385935      0.229824     -7.142938
  H      -0.539065     -3.261026     -6.675867
  O       0.072926     -2.509824     -6.733602
  H      -0.408495     -1.775722     -6.288202
  S      -1.268007     -2.808509    -10.065797
  H      -0.190650     -2.685291     -9.260618
  H      -1.897011     -1.806642     -9.414464
33
Coordinates from ORCA-job neb_35_143_CI_MEP.QMRegion E -2131.030094173030
  H      -1.557477     -0.684375     -4.593064
  O      -1.046386     -0.452378     -5.393223
  H      -0.325794      0.123903     -5.073338
  H       2.293438     -4.552202     -6.732366
  O       2.123688     -5.006422     -5.895070
  H       1.852339     -4.277484     -5.278306
  H       3.389686     -2.614760     -8.455839
  O       3.275918     -3.134040     -7.641609
  H       4.157560     -3.096732     -7.221902
  H       3.313956     -0.806560     -5.684818
  O       2.462339     -0.895728     -6.167014
  H       2.462762     -1.800447     -6.524146
  H       2.069846     -0.102023     -7.603860
  O       1.660302      0.352881     -8.385034
  H       2.215792      0.114823     -9.131235
  H       4.996692     -1.405639     -9.354627
  O       4.062626     -1.214041     -9.634752
  H       4.058628     -1.413363    -10.575379
  H      -4.128640     -3.030074     -4.922676
  O      -4.281480     -2.875550     -5.883218
  H      -4.869701     -2.104399     -5.881601
  H      -2.711288     -3.928585     -6.192166
  O      -1.954500     -4.487837     -5.951596
  H      -1.710600     -4.210199     -5.037683
  H      -0.279828      0.455954     -8.214217
  O      -1.212952      0.654793     -8.017569
  H      -1.380731      0.222068     -7.163911
  H      -0.571942     -3.269259     -6.639890
  O       0.044237     -2.523727     -6.722920
  H      -0.423867     -1.780526     -6.278212
  S      -0.595166     -2.572244    -10.326024
  H       0.264383     -3.111006     -9.435675
  H      -1.054563     -1.704169     -9.397686
33
Coordinates from ORCA-job neb_35_143_CI_MEP.QMRegion E -2131.030227389648
  H      -1.550882     -0.728809     -4.575569
  O      -1.029054     -0.513041     -5.373751
  H      -0.318926      0.075354     -5.055923
  H       2.299810     -4.564470     -6.727812
  O       2.126020     -5.016266     -5.889623
  H       1.855506     -4.285190     -5.275644
  H       3.392320     -2.654359     -8.458848
  O       3.283705     -3.171911     -7.641353
  H       4.166855     -3.129754     -7.225721
  H       3.308360     -0.837261     -5.670840
  O       2.458203     -0.939375     -6.153157
  H       2.490250     -1.833222     -6.537470
  H       2.062598     -0.126906     -7.581858
  O       1.649220      0.329651     -8.358739
  H       2.156256      0.035395     -9.119606
  H       4.988008     -1.442287     -9.355585
  O       4.047824     -1.275607     -9.629162
  H       4.036095     -1.491570    -10.565925
  H      -4.122121     -3.041237     -4.921383
  O      -4.266686     -2.891886     -5.884359
  H      -4.849176     -2.116960     -5.893755
  H      -2.706684     -3.939331     -6.185772
  O      -1.951481     -4.501787     -5.945578
  H      -1.706775     -4.224973     -5.030995
  H      -0.289779      0.436482     -8.189259
  O      -1.216186      0.655688     -7.983037
  H      -1.388635      0.211734     -7.137179
  H      -0.581789     -3.327814     -6.637831
  O       0.022182     -2.575152     -6.752844
  H      -0.437500     -1.835057     -6.294102
  S      -0.170724     -2.577134    -10.350654
  H       0.643326     -3.590045     -9.988160
  H      -0.389688     -2.251499     -9.055869
33
Coordinates from ORCA-job neb_35_143_CI_MEP.QMRegion E -2131.032092333028
  H      -1.554276     -0.773892     -4.576870
  O      -1.031577     -0.561929     -5.375839
  H      -0.332011      0.038084     -5.058961
  H       2.301717     -4.556224     -6.741086
  O       2.128095     -5.012351     -5.905430
  H       1.858650     -4.283282     -5.289011
  H       3.392512     -2.570130     -8.432316
  O       3.284674     -3.139557     -7.646670
  H       4.166558     -3.111313     -7.226411
  H       3.299979     -0.835212     -5.665337
  O       2.448754     -0.951637     -6.142296
  H       2.509532     -1.835946     -6.547924
  H       1.991044     -0.123354     -7.549269
  O       1.555599      0.323061     -8.319792
  H       2.037091      0.003657     -9.087254
  H       4.989978     -1.392936     -9.339295
  O       4.040068     -1.188489     -9.543027
  H       3.919779     -1.438740    -10.463284
  H      -4.119646     -3.059983     -4.923053
  O      -4.262334     -2.912844     -5.887192
  H      -4.846998     -2.139996     -5.900624
  H      -2.703253     -3.955962     -6.196841
  O      -1.944780     -4.513478     -5.955105
  H      -1.699893     -4.232215     -5.042023
  H      -0.371839      0.425355     -8.155701
  O      -1.295149      0.665358     -7.957744
  H      -1.481859      0.217456     -7.117328
  H      -0.572761     -3.360059     -6.674666
  O       0.043280     -2.615996     -6.784116
  H      -0.422342     -1.864211     -6.353045
  S       0.744098     -2.621273    -10.256005
  H       1.468424     -3.741493    -10.055687
  H       0.457132     -2.510842     -8.932148
