36
Coordinates from ORCA-job neb_14_274_CI_MEP.QMRegion E -2202.343847606349
  H      -0.760442      6.371076      5.008611
  O      -1.359237      6.946391      5.551524
  H      -1.373358      7.827453      5.094008
  H      -1.721266      4.396911      7.692778
  O      -0.839351      4.533808      8.110729
  H      -0.623249      5.484334      8.068731
  H      -3.886652      4.583743      7.831055
  O      -3.321775      4.149941      7.148423
  H      -3.518690      3.202086      7.285913
  H      -3.903800      5.244872      5.628773
  O      -3.885265      6.098659      5.170321
  H      -2.935201      6.357719      5.230750
  H      -6.246933      3.172306      7.327749
  O      -6.125393      2.718435      8.196450
  H      -6.688994      1.919880      8.119489
  H      -5.726655      3.609025      5.202217
  O      -6.493611      3.892655      5.750722
  H      -6.501840      4.850912      5.666943
  H      -1.993136      5.208774     10.786884
  O      -2.768036      4.625766     10.969819
  H      -2.919032      4.694374     11.915625
  H      -4.232865      4.943681      9.917422
  O      -4.845286      5.120945      9.174680
  H      -5.494625      4.399325      9.183132
  H       0.190689      5.981444     10.903760
  O      -0.657261      6.381932     10.686290
  H      -0.514632      6.774133      9.804997
  H      -3.865550      9.063373      6.524659
  O      -3.992775      8.999642      5.565915
  H      -4.202753      8.060124      5.432333
  H       0.690558      7.135217      7.574303
  O      -0.214752      7.177383      7.938412
  H      -0.734608      7.201695      7.089216
  S      -3.722913      8.636162      8.965055
  H      -4.221951      7.383505      8.860767
  H      -2.446784      8.218297      8.843965
36
Coordinates from ORCA-job neb_14_274_CI_MEP.QMRegion E -2202.341743978264
  H      -0.731777      6.381370      5.017407
  O      -1.325071      6.959212      5.562942
  H      -1.348671      7.835579      5.099129
  H      -1.688847      4.418945      7.692262
  O      -0.811497      4.551304      8.119149
  H      -0.583414      5.499695      8.076942
  H      -3.843816      4.559645      7.844236
  O      -3.286013      4.142323      7.147019
  H      -3.480479      3.192412      7.273655
  H      -3.840937      5.229911      5.630788
  O      -3.816205      6.065711      5.140796
  H      -2.871581      6.341804      5.223417
  H      -6.230023      3.172780      7.350997
  O      -6.118588      2.702237      8.212976
  H      -6.678902      1.902735      8.119081
  H      -5.697071      3.611937      5.225776
  O      -6.452797      3.907011      5.784784
  H      -6.446009      4.865055      5.699966
  H      -1.884714      5.221300     10.752137
  O      -2.656173      4.645897     10.970928
  H      -2.754449      4.711183     11.923851
  H      -4.162784      4.892928      9.953925
  O      -4.800847      5.007382      9.220500
  H      -5.403418      4.245342      9.247899
  H       0.260664      6.171073     10.914172
  O      -0.611666      6.474889     10.644371
  H      -0.466016      6.852934      9.753876
  H      -4.177589      9.078907      6.360337
  O      -4.058529      8.942703      5.411307
  H      -4.193689      7.983972      5.317002
  H       0.741840      7.124999      7.558687
  O      -0.149486      7.193335      7.954290
  H      -0.695532      7.242827      7.127671
  S      -4.965695      8.466330      8.725681
  H      -5.140173      7.123308      8.708675
  H      -3.687589      8.337178      9.135545
36
Coordinates from ORCA-job neb_14_274_CI_MEP.QMRegion E -2202.339477849458
  H      -0.730234      6.379718      5.010693
  O      -1.323924      6.958275      5.555104
  H      -1.345395      7.835050      5.092321
  H      -1.688293      4.421475      7.691538
  O      -0.810259      4.551365      8.116928
  H      -0.581240      5.499922      8.074661
  H      -3.847310      4.554420      7.857130
  O      -3.291474      4.150577      7.150874
  H      -3.481622      3.198603      7.265620
  H      -3.850541      5.254777      5.647250
  O      -3.819683      6.083264      5.145379
  H      -2.871236      6.349329      5.218327
  H      -6.229522      3.170324      7.349514
  O      -6.119692      2.695245      8.209488
  H      -6.678178      1.894665      8.112152
  H      -5.694482      3.614475      5.226144
  O      -6.450445      3.906467      5.785951
  H      -6.449728      4.864949      5.699288
  H      -1.895621      5.229063     10.753039
  O      -2.655648      4.641843     10.981331
  H      -2.739825      4.700607     11.936038
  H      -4.171335      4.854728      9.981383
  O      -4.812623      4.951880      9.248232
  H      -5.395640      4.173744      9.267378
  H       0.236041      6.207565     10.908296
  O      -0.640334      6.495864     10.634908
  H      -0.497589      6.871107      9.742561
  H      -4.217760      9.149609      6.327689
  O      -4.050206      8.943578      5.402554
  H      -4.192236      7.980786      5.366060
  H       0.740279      7.124089      7.553172
  O      -0.152209      7.191366      7.945980
  H      -0.696500      7.239879      7.118075
  S      -5.640244      8.211808      8.499458
  H      -5.491227      6.877643      8.691376
  H      -4.445204      8.461843      9.072779
36
Coordinates from ORCA-job neb_14_274_CI_MEP.QMRegion E -2202.337754084436
  H      -0.747325      6.372437      5.003782
  O      -1.344332      6.951512      5.543971
  H      -1.358001      7.829320      5.082973
  H      -1.708849      4.418869      7.695540
  O      -0.825819      4.545009      8.111245
  H      -0.601226      5.494646      8.072718
  H      -3.881960      4.557583      7.876725
  O      -3.323946      4.166320      7.165427
  H      -3.506320      3.211770      7.268195
  H      -3.900270      5.291243      5.666133
  O      -3.859596      6.119333      5.164754
  H      -2.904370      6.363155      5.221317
  H      -6.243571      3.164450      7.350706
  O      -6.128382      2.688979      8.210123
  H      -6.685745      1.887350      8.114063
  H      -5.711671      3.615217      5.226924
  O      -6.471921      3.895635      5.786658
  H      -6.481826      4.854257      5.711250
  H      -1.948792      5.235708     10.765989
  O      -2.694785      4.631773     10.997327
  H      -2.775872      4.685106     11.952436
  H      -4.217595      4.828896     10.013292
  O      -4.858388      4.925420      9.279921
  H      -5.429128      4.137240      9.283251
  H       0.168329      6.228675     10.911076
  O      -0.707605      6.509802     10.629236
  H      -0.559965      6.878563      9.735294
  H      -4.064874      9.209399      6.384518
  O      -4.027178      8.977587      5.453661
  H      -4.213784      8.020212      5.446046
  H       0.715137      7.124815      7.549969
  O      -0.181124      7.187350      7.933738
  H      -0.719443      7.227368      7.100731
  S      -6.064836      7.961855      8.313239
  H      -5.718639      6.724663      8.748890
  H      -4.906661      8.483546      8.770671
36
Coordinates from ORCA-job neb_14_274_CI_MEP.QMRegion E -2202.337368507995
  H      -0.746740      6.371053      5.005850
  O      -1.342784      6.953014      5.544631
  H      -1.354603      7.829248      5.080827
  H      -1.717455      4.426884      7.707097
  O      -0.829524      4.548329      8.113728
  H      -0.605787      5.497840      8.080712
  H      -3.897498      4.566658      7.903437
  O      -3.339760      4.185985      7.185668
  H      -3.520933      3.229999      7.273129
  H      -3.923477      5.333650      5.694437
  O      -3.868766      6.155704      5.183887
  H      -2.907198      6.375002      5.226267
  H      -6.247304      3.171364      7.361942
  O      -6.130007      2.691163      8.219110
  H      -6.688367      1.890770      8.120959
  H      -5.715556      3.640683      5.240465
  O      -6.470130      3.916062      5.807750
  H      -6.471811      4.878062      5.762102
  H      -1.963930      5.246011     10.784697
  O      -2.701140      4.632326     11.017064
  H      -2.782431      4.684915     11.972198
  H      -4.228107      4.826353     10.044538
  O      -4.870306      4.924412      9.312738
  H      -5.434386      4.131352      9.308621
  H       0.145632      6.255645     10.927154
  O      -0.730666      6.528672     10.638105
  H      -0.580018      6.893887      9.743745
  H      -3.817754      9.167654      6.491670
  O      -3.986899      8.999747      5.561312
  H      -4.185598      8.043748      5.521071
  H       0.711088      7.133657      7.557799
  O      -0.186853      7.197167      7.936787
  H      -0.720732      7.229804      7.100800
  S      -6.402857      7.722651      8.148835
  H      -5.887381      6.640022      8.781754
  H      -5.269817      8.428402      8.347665
36
Coordinates from ORCA-job neb_14_274_CI_MEP.QMRegion E -2202.339648655035
  H      -0.746001      6.357125      4.986087
  O      -1.349472      6.938503      5.519637
  H      -1.355965      7.815259      5.058478
  H      -1.732521      4.407347      7.683055
  O      -0.847654      4.534735      8.095067
  H      -0.629890      5.485241      8.060585
  H      -3.911541      4.554444      7.879896
  O      -3.356212      4.177298      7.156922
  H      -3.537907      3.221100      7.241651
  H      -3.942913      5.330222      5.682902
  O      -3.868010      6.152855      5.174688
  H      -2.899711      6.343373      5.203787
  H      -6.255216      3.156525      7.337798
  O      -6.132306      2.685996      8.201809
  H      -6.689306      1.883443      8.113069
  H      -5.736187      3.652634      5.233309
  O      -6.496223      3.901077      5.803989
  H      -6.500262      4.865562      5.820538
  H      -1.986122      5.234635     10.763044
  O      -2.722835      4.620827     10.996464
  H      -2.806202      4.674533     11.951262
  H      -4.243501      4.814186     10.015375
  O      -4.879269      4.918772      9.279424
  H      -5.446570      4.127150      9.266956
  H       0.121659      6.241607     10.895354
  O      -0.755590      6.513404     10.608268
  H      -0.607537      6.878901      9.713704
  H      -3.598604      9.016334      6.573755
  O      -3.948034      8.945066      5.681043
  H      -4.115222      7.986752      5.560715
  H       0.693052      7.124827      7.542392
  O      -0.209621      7.184385      7.910511
  H      -0.734385      7.207801      7.068023
  S      -6.728053      7.380548      7.846834
  H      -5.984492      6.559378      8.627074
  H      -5.681928      8.194304      7.595387
36
Coordinates from ORCA-job neb_14_274_CI_MEP.QMRegion E -2202.343742844422
  H      -0.748334      6.363011      4.988383
  O      -1.351942      6.942579      5.523019
  H      -1.359141      7.820365      5.064277
  H      -1.729043      4.432399      7.688112
  O      -0.841644      4.554482      8.095631
  H      -0.619793      5.503435      8.062086
  H      -3.918685      4.574592      7.900977
  O      -3.364953      4.197864      7.175748
  H      -3.545158      3.240917      7.255769
  H      -3.977348      5.371334      5.715118
  O      -3.875838      6.187599      5.201019
  H      -2.901099      6.348962      5.227708
  H      -6.256407      3.110231      7.365366
  O      -6.122142      2.675270      8.251266
  H      -6.677066      1.870483      8.182884
  H      -5.776689      3.609869      5.267199
  O      -6.556021      3.762568      5.842294
  H      -6.645044      4.724405      5.936687
  H      -1.951994      5.244345     10.728710
  O      -2.695073      4.640944     10.964121
  H      -2.766942      4.695327     11.920075
  H      -4.257326      4.896975      9.995513
  O      -4.906037      4.983719      9.269371
  H      -5.448702      4.174549      9.274875
  H       0.154038      6.337097     10.916259
  O      -0.726244      6.558461     10.597659
  H      -0.570457      6.920907      9.702824
  H      -3.647154      9.036102      6.651900
  O      -3.951629      8.923328      5.746855
  H      -4.052848      7.952676      5.637902
  H       0.699937      7.151383      7.530951
  O      -0.198242      7.221193      7.908254
  H      -0.732758      7.237172      7.073143
  S      -7.115360      6.814517      7.257292
  H      -6.197304      6.425019      8.172512
  H      -6.258606      7.663594      6.652116
