15
Coordinates from ORCA-job neb_37_158_CI_MEP.QMRegion E -1703.029008096922
  H       8.059787     -1.273121     -6.003722
  O       8.107581     -2.165374     -5.592772
  H       7.228569     -2.541451     -5.816254
  H       6.839164     -1.044514     -8.399452
  O       6.348414     -1.835139     -8.656853
  H       6.086138     -2.220445     -7.801026
  H       9.554071     -2.115835     -0.918277
  O       9.877268     -1.905685     -1.810168
  H       9.069269     -1.610544     -2.283186
  H       9.998582     -3.417646     -2.952084
  O       9.835150     -4.088371     -3.646527
  H       9.332139     -3.601940     -4.312114
  S      10.700036     -4.214960     -7.310698
  H      11.065210     -4.329648     -6.015639
  H       9.736176     -3.320202     -7.006209
15
Coordinates from ORCA-job neb_37_158_CI_MEP.QMRegion E -1703.028441337997
  H       8.025968     -1.286662     -6.008931
  O       8.072710     -2.172175     -5.585129
  H       7.197146     -2.553088     -5.816483
  H       6.817601     -1.099005     -8.443143
  O       6.323914     -1.888955     -8.694723
  H       6.066982     -2.271735     -7.836261
  H       9.460314     -2.159976     -0.936571
  O       9.791281     -1.967692     -1.829575
  H       8.995998     -1.630904     -2.300310
  H       9.867615     -3.397745     -3.004954
  O       9.743902     -4.078634     -3.701286
  H       9.220703     -3.626562     -4.377097
  S      11.657212     -3.875317     -6.636789
  H      11.372266     -4.290247     -5.381017
  H      10.781751     -2.855597     -6.527366
15
Coordinates from ORCA-job neb_37_158_CI_MEP.QMRegion E -1703.028125092960
  H       8.039110     -1.292275     -5.997162
  O       8.076686     -2.174784     -5.567892
  H       7.199372     -2.550703     -5.798075
  H       6.823149     -1.100886     -8.423080
  O       6.324825     -1.887213     -8.677524
  H       6.066988     -2.270375     -7.819230
  H       9.461338     -2.157798     -0.916008
  O       9.789578     -1.970596     -1.811629
  H       8.994711     -1.632563     -2.281973
  H       9.864957     -3.396266     -2.974518
  O       9.750685     -4.073768     -3.676736
  H       9.239955     -3.617855     -4.359917
  S      12.119581     -3.654922     -6.163992
  H      11.515256     -4.217550     -5.092867
  H      11.392375     -2.529888     -6.011803
15
Coordinates from ORCA-job neb_37_158_CI_MEP.QMRegion E -1703.028130200025
  H       8.057895     -1.303864     -6.000473
  O       8.084185     -2.183654     -5.566268
  H       7.205025     -2.552698     -5.799053
  H       6.835477     -1.106406     -8.408955
  O       6.329667     -1.885587     -8.669755
  H       6.067239     -2.271268     -7.813298
  H       9.475265     -2.153734     -0.906191
  O       9.796935     -1.969542     -1.804995
  H       8.998050     -1.637669     -2.272985
  H       9.882691     -3.404941     -2.946682
  O       9.775396     -4.076604     -3.656445
  H       9.284734     -3.608752     -4.346617
  S      12.506080     -3.447705     -5.658788
  H      11.647315     -4.088549     -4.830681
  H      11.921016     -2.265227     -5.380529
15
Coordinates from ORCA-job neb_37_158_CI_MEP.QMRegion E -1703.028150956533
  H       8.052860     -1.309268     -6.003993
  O       8.075543     -2.188364     -5.568844
  H       7.194912     -2.555036     -5.800866
  H       6.819771     -1.090438     -8.405944
  O       6.322810     -1.874738     -8.668933
  H       6.059643     -2.262544     -7.814157
  H       9.462980     -2.143429     -0.902388
  O       9.785643     -1.961093     -1.801895
  H       8.986829     -1.630941     -2.271860
  H       9.853877     -3.398366     -2.929235
  O       9.757368     -4.065649     -3.644979
  H       9.275280     -3.595089     -4.338804
  S      12.749392     -3.271428     -5.101751
  H      11.751550     -4.041786     -4.605281
  H      12.161154     -2.164449     -4.604273
15
Coordinates from ORCA-job neb_37_158_CI_MEP.QMRegion E -1703.028470391604
  H       8.054836     -1.312493     -5.992476
  O       8.075380     -2.191245     -5.557329
  H       7.192945     -2.556206     -5.785172
  H       6.816376     -1.063524     -8.378394
  O       6.326071     -1.850837     -8.646401
  H       6.060695     -2.241853     -7.793809
  H       9.471597     -2.127346     -0.886501
  O       9.794627     -1.937702     -1.784478
  H       8.992275     -1.619225     -2.257421
  H       9.858581     -3.385369     -2.904976
  O       9.755368     -4.040275     -3.629590
  H       9.285012     -3.549697     -4.318352
  S      12.946923     -3.111430     -4.393294
  H      11.884799     -3.947111     -4.321462
  H      12.254310     -2.157274     -3.738910
15
Coordinates from ORCA-job neb_37_158_CI_MEP.QMRegion E -1703.029179723219
  H       8.070581     -1.288104     -6.012058
  O       8.085049     -2.169152     -5.580062
  H       7.201920     -2.528092     -5.815737
  H       6.865308     -1.003096     -8.470502
  O       6.378402     -1.799399     -8.718844
  H       6.142373     -2.191781     -7.860920
  H       9.452849     -2.157747     -0.929815
  O       9.784684     -1.968606     -1.823863
  H       8.994633     -1.622456     -2.299510
  H       9.817587     -3.390871     -3.025149
  O       9.743114     -4.069603     -3.727313
  H       9.288239     -3.609976     -4.446902
  S      13.059390     -2.967694     -3.208386
  H      12.083403     -3.683301     -3.810061
  H      12.141743     -2.259022     -2.519723
