21
Coordinates from ORCA-job neb_16_208_CI_MEP.QMRegion E -1845.688540577406
  H      -1.832743      9.615781     -0.854215
  O      -2.672304      9.477710     -0.345027
  H      -3.319699     10.055907     -0.761759
  H      -2.322171      8.736109      1.224041
  O      -2.171693      8.137134      1.978834
  H      -1.394326      7.590733      1.746239
  H      -4.349821      6.347509      3.399022
  O      -4.559846      6.845950      2.588545
  H      -3.725890      7.322882      2.396274
  H      -1.825266      8.947910      3.502987
  O      -1.582556      9.241730      4.407996
  H      -2.425064      9.315622      4.885544
  H      -3.700985      5.234002      5.726527
  O      -3.697515      5.997158      5.118845
  H      -2.768306      6.316432      5.230201
  H      -4.002254      8.734015      6.854523
  O      -4.057820      8.681920      5.896251
  H      -4.105017      7.720006      5.714661
  S      -5.998134      9.986640      3.191894
  H      -5.448449      9.842271      4.416457
  H      -5.744841      8.686981      2.902278
21
Coordinates from ORCA-job neb_16_208_CI_MEP.QMRegion E -1845.686095367912
  H      -1.816360      9.590452     -0.839462
  O      -2.653366      9.452422     -0.323982
  H      -3.300058     10.035209     -0.734866
  H      -2.306750      8.683769      1.235751
  O      -2.167822      8.089252      1.995101
  H      -1.386810      7.542585      1.772203
  H      -4.387610      6.319781      3.396286
  O      -4.561943      6.833962      2.589028
  H      -3.702361      7.268959      2.416235
  H      -1.840358      8.915296      3.509017
  O      -1.610712      9.226491      4.411669
  H      -2.460062      9.290224      4.878819
  H      -3.711753      5.222468      5.747595
  O      -3.708844      5.982085      5.134873
  H      -2.780729      6.302718      5.244553
  H      -4.103339      8.740530      6.792563
  O      -4.132810      8.662758      5.834916
  H      -4.155277      7.694726      5.676337
  S      -5.620092     10.585959      3.241096
  H      -5.345749     10.027108      4.439527
  H      -5.206584      9.468990      2.612479
21
Coordinates from ORCA-job neb_16_208_CI_MEP.QMRegion E -1845.684631108667
  H      -1.809123      9.597113     -0.842344
  O      -2.642842      9.460702     -0.319610
  H      -3.288358     10.053972     -0.716154
  H      -2.280406      8.697763      1.224504
  O      -2.151443      8.111117      1.991853
  H      -1.377424      7.551816      1.775060
  H      -4.373989      6.332402      3.392574
  O      -4.557703      6.839603      2.583523
  H      -3.708365      7.290135      2.408522
  H      -1.821853      8.922984      3.507506
  O      -1.597540      9.234871      4.411453
  H      -2.448141      9.292336      4.878335
  H      -3.712084      5.235106      5.745099
  O      -3.708080      5.996460      5.135088
  H      -2.778476      6.312947      5.244223
  H      -4.110717      8.779539      6.762205
  O      -4.116768      8.689962      5.805072
  H      -4.145683      7.720409      5.657362
  S      -5.609530     10.721609      3.266672
  H      -5.367778     10.035005      4.405116
  H      -4.779305      9.914952      2.574596
21
Coordinates from ORCA-job neb_16_208_CI_MEP.QMRegion E -1845.684527003729
  H      -1.801374      9.605095     -0.835074
  O      -2.646745      9.476292     -0.329962
  H      -3.288684     10.035396     -0.780451
  H      -2.280902      8.707975      1.229521
  O      -2.144051      8.128343      2.000161
  H      -1.371344      7.568367      1.781729
  H      -4.339532      6.297958      3.389588
  O      -4.557463      6.812239      2.593476
  H      -3.731748      7.299730      2.412604
  H      -1.811805      8.931623      3.512758
  O      -1.592043      9.246399      4.417543
  H      -2.445803      9.302544      4.878545
  H      -3.703179      5.244348      5.762852
  O      -3.702463      6.002064      5.148154
  H      -2.772884      6.320214      5.253824
  H      -4.126176      8.813146      6.721397
  O      -4.137804      8.689513      5.768186
  H      -4.151425      7.714627      5.651873
  S      -5.573345     10.760092      3.251335
  H      -5.409554      9.877896      4.262120
  H      -4.424761     10.356086      2.670296
21
Coordinates from ORCA-job neb_16_208_CI_MEP.QMRegion E -1845.684766205379
  H      -1.797657      9.604239     -0.840315
  O      -2.622329      9.460629     -0.305611
  H      -3.276057     10.062572     -0.673843
  H      -2.277426      8.704801      1.230280
  O      -2.139573      8.124641      2.002140
  H      -1.372127      7.559983      1.777646
  H      -4.353284      6.332217      3.383165
  O      -4.563357      6.835835      2.579149
  H      -3.737018      7.324993      2.402091
  H      -1.807984      8.919093      3.502268
  O      -1.592611      9.246380      4.405317
  H      -2.445266      9.281295      4.872365
  H      -3.701011      5.245448      5.743162
  O      -3.697876      6.004933      5.131352
  H      -2.767904      6.320771      5.239633
  H      -4.146995      8.827989      6.698622
  O      -4.116084      8.708007      5.745289
  H      -4.136090      7.734162      5.624979
  S      -5.410420     10.701131      3.020712
  H      -5.312983      9.894117      4.100403
  H      -4.072462     10.697050      2.850764
21
Coordinates from ORCA-job neb_16_208_CI_MEP.QMRegion E -1845.686077657369
  H      -1.788169      9.606372     -0.835124
  O      -2.607620      9.457169     -0.294575
  H      -3.260051     10.077612     -0.632682
  H      -2.272604      8.719837      1.242779
  O      -2.128169      8.134902      2.011154
  H      -1.362766      7.571408      1.778425
  H      -4.335129      6.332730      3.378399
  O      -4.555257      6.839435      2.578833
  H      -3.733569      7.335485      2.397314
  H      -1.795451      8.924300      3.499619
  O      -1.583423      9.253006      4.404500
  H      -2.439182      9.282637      4.866743
  H      -3.693396      5.254121      5.745727
  O      -3.691403      6.011224      5.131153
  H      -2.761579      6.328408      5.239480
  H      -4.179832      8.868580      6.640371
  O      -4.122510      8.724307      5.691742
  H      -4.134056      7.747636      5.594987
  S      -5.064098     10.802047      2.857663
  H      -5.119856      9.911894      3.873081
  H      -3.734522     10.965285      3.016926
21
Coordinates from ORCA-job neb_16_208_CI_MEP.QMRegion E -1845.687268914177
  H      -1.800757      9.596624     -0.825892
  O      -2.604103      9.427644     -0.269598
  H      -3.252297     10.092557     -0.518649
  H      -2.299266      8.710267      1.278312
  O      -2.158261      8.107102      2.035612
  H      -1.390946      7.551248      1.793010
  H      -4.390766      6.321115      3.378545
  O      -4.591939      6.834048      2.578124
  H      -3.757703      7.316845      2.414427
  H      -1.816902      8.905784      3.507331
  O      -1.617872      9.250113      4.411028
  H      -2.480884      9.251348      4.863453
  H      -3.724828      5.257002      5.758923
  O      -3.718664      6.014088      5.144114
  H      -2.788778      6.328107      5.253540
  H      -4.323677      8.932245      6.508825
  O      -4.199318      8.739532      5.575592
  H      -4.201539      7.759503      5.527486
  S      -4.339823     11.119833      2.713675
  H      -4.683495     10.092441      3.520879
  H      -3.097983     11.171422      3.240737
