27
Coordinates from ORCA-job neb_155_365_CI_MEP.QMRegion E -1988.367496363753
  H      -5.796977     -3.186931      1.357258
  O      -6.261647     -3.753209      2.029329
  H      -6.044443     -3.325542      2.883629
  H      -7.610585      3.867925     -1.949106
  O      -7.901601      3.297517     -1.202666
  H      -7.758541      2.389823     -1.559303
  H      -6.277469     -0.137545      1.183459
  O      -6.762104     -0.193743      0.337109
  H      -7.670488     -0.386074      0.611687
  H      -5.379169     -3.122018     -0.596942
  O      -5.153776     -2.400403      0.020897
  H      -5.784777     -1.668999     -0.149662
  H      -9.023771     -1.813205     -2.329829
  O      -8.516753     -1.569640     -1.522947
  H      -8.549761     -2.331765     -0.901144
  H      -7.821630     -3.757874      0.915521
  O      -8.533928     -3.681311      0.250443
  H      -8.418533     -4.448227     -0.348595
  H      -7.831516      0.078525     -1.940144
  O      -7.405585      0.846171     -2.359423
  H      -7.617286      0.793533     -3.314372
  H     -10.477567      4.069983     -2.851096
  O     -10.581168      3.343727     -2.213593
  H      -9.725817      3.334413     -1.744128
  S      -9.792444     -0.855284      1.758187
  H     -10.368871     -0.506801      0.589654
  H      -9.671723     -2.143673      1.372926
27
Coordinates from ORCA-job neb_155_365_CI_MEP.QMRegion E -1988.364454799578
  H      -5.797720     -3.223194      1.373863
  O      -6.261868     -3.786512      2.048208
  H      -6.034907     -3.360430      2.900200
  H      -7.598196      3.823164     -1.954355
  O      -7.881989      3.237352     -1.216432
  H      -7.710181      2.333184     -1.575523
  H      -6.251662     -0.163629      1.188540
  O      -6.710584     -0.195450      0.326266
  H      -7.645388     -0.276169      0.565668
  H      -5.361636     -3.164192     -0.575412
  O      -5.141643     -2.436224      0.039293
  H      -5.764791     -1.704746     -0.150851
  H      -9.004928     -1.843735     -2.319684
  O      -8.496609     -1.599839     -1.514666
  H      -8.522300     -2.364785     -0.889992
  H      -7.867119     -3.753307      0.925360
  O      -8.559413     -3.683687      0.240970
  H      -8.419138     -4.453698     -0.348875
  H      -7.811807      0.034085     -1.937298
  O      -7.383989      0.802896     -2.354444
  H      -7.596912      0.758491     -3.309303
  H     -10.745088      3.816595     -2.453719
  O     -10.555356      2.977876     -2.017153
  H      -9.647620      3.112486     -1.669177
  S      -9.885575     -0.324844      1.456900
  H     -10.331552      0.296284      0.344280
  H      -9.959262     -1.542688      0.884669
27
Coordinates from ORCA-job neb_155_365_CI_MEP.QMRegion E -1988.364198419926
  H      -5.799945     -3.208790      1.356466
  O      -6.262498     -3.771939      2.031765
  H      -6.037045     -3.344970      2.883569
  H      -7.604302      3.839956     -1.961451
  O      -7.888091      3.253004     -1.223847
  H      -7.715076      2.349571     -1.584811
  H      -6.255853     -0.149290      1.178639
  O      -6.711456     -0.175668      0.315115
  H      -7.649259     -0.238366      0.548773
  H      -5.368249     -3.147889     -0.592849
  O      -5.147300     -2.420017      0.020735
  H      -5.770681     -1.688555     -0.168477
  H      -9.009719     -1.826580     -2.331829
  O      -8.501249     -1.583421     -1.526011
  H      -8.527763     -2.349882     -0.902881
  H      -7.870237     -3.738290      0.906561
  O      -8.562980     -3.668865      0.222721
  H      -8.423709     -4.440641     -0.365047
  H      -7.820310      0.051510     -1.948391
  O      -7.390299      0.820261     -2.363575
  H      -7.603117      0.775915     -3.318913
  H     -10.807632      3.791424     -2.392316
  O     -10.556834      2.948498     -1.998457
  H      -9.646575      3.116655     -1.671470
  S      -9.901072     -0.250422      1.413623
  H     -10.336152      0.399386      0.312727
  H      -9.989903     -1.455056      0.816640
27
Coordinates from ORCA-job neb_155_365_CI_MEP.QMRegion E -1988.364203958017
  H      -5.812434     -3.196712      1.353686
  O      -6.272839     -3.761564      2.028362
  H      -6.048243     -3.332888      2.879545
  H      -7.610338      3.846725     -1.975721
  O      -7.894576      3.257276     -1.239660
  H      -7.715430      2.355298     -1.602261
  H      -6.264105     -0.135276      1.169845
  O      -6.713326     -0.157310      0.303709
  H      -7.654996     -0.200672      0.526844
  H      -5.374551     -3.137688     -0.594707
  O      -5.153996     -2.408938      0.017312
  H      -5.775617     -1.677163     -0.175799
  H      -9.012599     -1.815345     -2.337492
  O      -8.504032     -1.570377     -1.532136
  H      -8.535784     -2.334636     -0.905448
  H      -7.892436     -3.714017      0.900162
  O      -8.579867     -3.648339      0.210905
  H      -8.433216     -4.420935     -0.373603
  H      -7.824062      0.059129     -1.960091
  O      -7.392462      0.828359     -2.373138
  H      -7.606034      0.785122     -3.328690
  H     -10.861584      3.741965     -2.329625
  O     -10.559971      2.895417     -1.983037
  H      -9.645542      3.089410     -1.681124
  S      -9.929644     -0.132641      1.334479
  H     -10.323963      0.570040      0.250191
  H     -10.051345     -1.316056      0.701499
27
Coordinates from ORCA-job neb_155_365_CI_MEP.QMRegion E -1988.364173150178
  H      -5.824333     -3.195738      1.356536
  O      -6.280716     -3.763449      2.030811
  H      -6.056910     -3.333532      2.881413
  H      -7.617083      3.843964     -1.980217
  O      -7.899088      3.249566     -1.247392
  H      -7.710383      2.349903     -1.612724
  H      -6.272375     -0.127943      1.172536
  O      -6.711005     -0.145541      0.301368
  H      -7.657686     -0.148655      0.507238
  H      -5.378876     -3.136189     -0.591967
  O      -5.158470     -2.406336      0.018666
  H      -5.778607     -1.674758     -0.177727
  H      -9.013318     -1.811261     -2.337540
  O      -8.504633     -1.563260     -1.533330
  H      -8.542589     -2.323742     -0.900913
  H      -7.916801     -3.696485      0.897732
  O      -8.596693     -3.636001      0.201378
  H      -8.440638     -4.410456     -0.377851
  H      -7.826495      0.059988     -1.964035
  O      -7.390045      0.827069     -2.376674
  H      -7.604229      0.784312     -3.332120
  H     -10.940388      3.637132     -2.210627
  O     -10.549777      2.797265     -1.947799
  H      -9.636450      3.045038     -1.680555
  S      -9.965818      0.042102      1.216054
  H     -10.296796      0.818293      0.160625
  H     -10.129246     -1.094846      0.512250
27
Coordinates from ORCA-job neb_155_365_CI_MEP.QMRegion E -1988.364154847759
  H      -5.816467     -3.190767      1.336614
  O      -6.272075     -3.756051      2.013359
  H      -6.047556     -3.325641      2.863254
  H      -7.617182      3.851532     -1.986328
  O      -7.899054      3.255676     -1.254034
  H      -7.706070      2.356144     -1.618936
  H      -6.269040     -0.125446      1.163395
  O      -6.703146     -0.135788      0.290358
  H      -7.651097     -0.098145      0.488169
  H      -5.376765     -3.130730     -0.610289
  O      -5.156475     -2.399307     -0.001726
  H      -5.777141     -1.669075     -0.199721
  H      -9.013800     -1.804161     -2.346374
  O      -8.506090     -1.555978     -1.541176
  H      -8.542816     -2.318380     -0.909806
  H      -7.912118     -3.691321      0.877850
  O      -8.593239     -3.630308      0.183116
  H      -8.439648     -4.405934     -0.395480
  H      -7.830194      0.068619     -1.970936
  O      -7.391153      0.835011     -2.382425
  H      -7.604969      0.792488     -3.338228
  H     -11.012094      3.533160     -2.063090
  O     -10.525384      2.718107     -1.905592
  H      -9.619800      3.026966     -1.671629
  S      -9.975106      0.177956      1.113709
  H     -10.271972      1.020810      0.098171
  H     -10.144657     -0.912000      0.339906
27
Coordinates from ORCA-job neb_155_365_CI_MEP.QMRegion E -1988.364319958503
  H      -5.811925     -3.194003      1.316220
  O      -6.265561     -3.756781      1.996200
  H      -6.035811     -3.328276      2.845169
  H      -7.626401      3.852673     -1.989599
  O      -7.905242      3.252601     -1.259723
  H      -7.702771      2.354302     -1.625157
  H      -6.265867     -0.126196      1.152622
  O      -6.698290     -0.128170      0.279053
  H      -7.644443     -0.041007      0.471876
  H      -5.374704     -3.129817     -0.628403
  O      -5.155143     -2.396276     -0.021898
  H      -5.777490     -1.668712     -0.221417
  H      -9.017155     -1.798510     -2.351138
  O      -8.509887     -1.546699     -1.546945
  H      -8.550848     -2.305633     -0.910356
  H      -7.920697     -3.684245      0.860910
  O      -8.598475     -3.622597      0.163853
  H      -8.441617     -4.397495     -0.415121
  H      -7.837113      0.074038     -1.975293
  O      -7.394505      0.839025     -2.386703
  H      -7.609608      0.797192     -3.342283
  H     -11.073066      3.393821     -1.890914
  O     -10.503551      2.619821     -1.856596
  H      -9.609448      2.984712     -1.654021
  S      -9.987289      0.359009      0.972265
  H     -10.231080      1.277637      0.005351
  H     -10.170835     -0.667498      0.118587
