21
Coordinates from ORCA-job neb_11_262_CI_MEP.QMRegion E -1845.688192028850
  H      -9.026006     -1.738998     -2.324355
  O      -8.537349     -1.573019     -1.493520
  H      -8.634320     -2.332433     -0.886009
  H      -7.829211     -3.792130      0.941351
  O      -8.553296     -3.745284      0.288643
  H      -8.302057     -4.386792     -0.410201
  H      -6.819802     -5.234391     -1.508357
  O      -7.749621     -5.466501     -1.748860
  H      -7.846664     -5.046624     -2.634068
  H      -7.001469     -3.395780     -3.559956
  O      -7.619040     -3.987072     -4.046296
  H      -7.059281     -4.445510     -4.713834
  H      -8.829625     -2.541825     -4.389687
  O      -9.359715     -1.771118     -4.115418
  H      -9.017592     -1.026650     -4.626119
  H      -7.901175     -8.145378     -0.410203
  O      -7.305177     -8.129920     -1.170992
  H      -7.474626     -7.240606     -1.543712
  S     -10.202882     -7.014300      0.618585
  H     -10.434411     -6.802111     -0.692522
  H      -9.716434     -5.763098      0.783770
21
Coordinates from ORCA-job neb_11_262_CI_MEP.QMRegion E -1845.683698612283
  H      -9.005715     -1.760049     -2.263788
  O      -8.507956     -1.572441     -1.444992
  H      -8.574888     -2.325231     -0.819170
  H      -7.803369     -3.758578      1.025126
  O      -8.486364     -3.683475      0.330620
  H      -8.248739     -4.373873     -0.319617
  H      -6.783481     -5.252741     -1.443404
  O      -7.709695     -5.506011     -1.684041
  H      -7.800803     -5.087661     -2.569386
  H      -6.969610     -3.413782     -3.501908
  O      -7.584932     -4.012292     -3.985069
  H      -7.029330     -4.456353     -4.664903
  H      -8.784690     -2.566749     -4.328929
  O      -9.328793     -1.801296     -4.065609
  H      -8.993274     -1.055469     -4.578477
  H      -7.836122     -8.245937     -0.445450
  O      -7.242229     -8.164439     -1.199140
  H      -7.412136     -7.247940     -1.510091
  S     -10.923412     -6.710682     -0.408351
  H     -10.607049     -6.583712     -1.711033
  H     -10.770234     -5.388352     -0.197135
21
Coordinates from ORCA-job neb_11_262_CI_MEP.QMRegion E -1845.682251852242
  H      -9.010191     -1.760918     -2.260772
  O      -8.508020     -1.568336     -1.446556
  H      -8.559900     -2.323940     -0.820193
  H      -7.809083     -3.732383      1.019478
  O      -8.494233     -3.652192      0.328390
  H      -8.302821     -4.381258     -0.292135
  H      -6.796174     -5.254086     -1.430835
  O      -7.718034     -5.520055     -1.674300
  H      -7.809736     -5.106463     -2.561357
  H      -6.976984     -3.418968     -3.499571
  O      -7.589936     -4.021509     -3.980777
  H      -7.033592     -4.459290     -4.664165
  H      -8.785827     -2.572150     -4.329385
  O      -9.333303     -1.808355     -4.068450
  H      -9.000240     -1.062214     -4.582450
  H      -7.839885     -8.289290     -0.479387
  O      -7.244378     -8.162805     -1.224687
  H      -7.434321     -7.239065     -1.508393
  S     -11.235070     -6.432938     -1.087165
  H     -10.613452     -6.407039     -2.282350
  H     -11.166028     -5.092307     -0.965129
21
Coordinates from ORCA-job neb_11_262_CI_MEP.QMRegion E -1845.682114115582
  H      -8.992529     -1.763685     -2.289727
  O      -8.500221     -1.568402     -1.470298
  H      -8.537560     -2.332414     -0.851098
  H      -7.797002     -3.717746      0.973825
  O      -8.501013     -3.625617      0.303226
  H      -8.378141     -4.388747     -0.289926
  H      -6.824068     -5.257413     -1.434675
  O      -7.742869     -5.537156     -1.672823
  H      -7.840155     -5.137753     -2.565491
  H      -6.983982     -3.440181     -3.499263
  O      -7.592548     -4.046794     -3.980503
  H      -7.032304     -4.478563     -4.665891
  H      -8.784248     -2.588011     -4.348368
  O      -9.325169     -1.819955     -4.088336
  H      -8.977766     -1.074281     -4.594604
  H      -7.844339     -8.360951     -0.546049
  O      -7.240795     -8.161637     -1.268222
  H      -7.468806     -7.233985     -1.514172
  S     -11.462494     -6.142557     -1.834451
  H     -10.504890     -6.187026     -2.781313
  H     -11.329656     -4.808633     -1.687641
21
Coordinates from ORCA-job neb_11_262_CI_MEP.QMRegion E -1845.682067745610
  H      -9.007305     -1.752582     -2.292587
  O      -8.514666     -1.556508     -1.474162
  H      -8.566861     -2.311022     -0.845088
  H      -7.815326     -3.701037      0.992989
  O      -8.511190     -3.606010      0.315744
  H      -8.370893     -4.358269     -0.288952
  H      -6.811199     -5.246441     -1.423276
  O      -7.731969     -5.519015     -1.662255
  H      -7.830948     -5.112859     -2.550209
  H      -6.978751     -3.422446     -3.507912
  O      -7.591925     -4.020760     -3.994016
  H      -7.031785     -4.461558     -4.673050
  H      -8.761096     -2.567161     -4.363657
  O      -9.323941     -1.812180     -4.108493
  H      -9.000478     -1.060720     -4.621093
  H      -7.841154     -8.350985     -0.569557
  O      -7.226273     -8.155572     -1.282743
  H      -7.442978     -7.224748     -1.527144
  S     -11.449193     -5.843179     -2.369209
  H     -10.456468     -5.951412     -3.273916
  H     -11.431181     -4.496257     -2.431161
21
Coordinates from ORCA-job neb_11_262_CI_MEP.QMRegion E -1845.683075390547
  H      -9.011053     -1.742107     -2.298744
  O      -8.507242     -1.547497     -1.487672
  H      -8.570531     -2.292680     -0.849211
  H      -7.826978     -3.680392      0.994336
  O      -8.531557     -3.590579      0.325747
  H      -8.380804     -4.333524     -0.288780
  H      -6.819803     -5.233087     -1.403432
  O      -7.741316     -5.501354     -1.643891
  H      -7.833200     -5.106117     -2.536759
  H      -6.963610     -3.418048     -3.513681
  O      -7.576172     -4.014371     -4.003145
  H      -7.015340     -4.449498     -4.686087
  H      -8.725687     -2.553363     -4.376698
  O      -9.310961     -1.810436     -4.134950
  H      -9.000936     -1.054927     -4.650187
  H      -7.834049     -8.378256     -0.617831
  O      -7.214428     -8.155688     -1.318872
  H      -7.437213     -7.220273     -1.537453
  S     -11.411226     -5.474692     -3.057068
  H     -10.270470     -5.638768     -3.755168
  H     -11.350995     -4.134598     -3.190710
21
Coordinates from ORCA-job neb_11_262_CI_MEP.QMRegion E -1845.685182206608
  H      -9.034792     -1.774410     -2.260166
  O      -8.512761     -1.567372     -1.465705
  H      -8.578272     -2.300739     -0.812650
  H      -7.831829     -3.676973      1.025923
  O      -8.549198     -3.581996      0.370799
  H      -8.427869     -4.340514     -0.229674
  H      -6.848679     -5.241124     -1.377830
  O      -7.774769     -5.521213     -1.584030
  H      -7.902552     -5.136189     -2.474845
  H      -6.973563     -3.442889     -3.467575
  O      -7.580336     -4.039115     -3.964955
  H      -7.014665     -4.469434     -4.646741
  H      -8.719547     -2.577594     -4.339402
  O      -9.321644     -1.841488     -4.115736
  H      -9.011232     -1.083066     -4.626274
  H      -7.820688     -8.453669     -0.656946
  O      -7.199851     -8.167474     -1.332924
  H      -7.452538     -7.230575     -1.508379
  S     -11.225761     -4.876273     -4.065944
  H      -9.926828     -5.125019     -4.318829
  H     -11.039665     -3.549007     -4.222216
