30
Coordinates from ORCA-job neb_41_365_CI_MEP.QMRegion E -2059.689470861406
  H      -7.589781      3.845336     -1.950857
  O      -7.894483      3.271766     -1.211766
  H      -7.741075      2.359492     -1.564848
  H      -6.294091     -0.198376      1.187712
  O      -6.690162     -0.217337      0.295579
  H      -7.565192     -0.601102      0.385671
  H      -9.012215     -1.827075     -2.192007
  O      -8.460470     -1.605308     -1.418216
  H      -8.493662     -2.358901     -0.778616
  H      -7.742900     -3.782420      0.986526
  O      -8.442410     -3.672859      0.315342
  H      -8.340173     -4.438722     -0.282659
  H      -7.295486      1.618158     -5.242459
  O      -7.897993      0.879867     -5.029312
  H      -8.795073      1.295579     -5.010015
  H      -7.836021      0.064049     -1.913461
  O      -7.397941      0.834031     -2.316475
  H      -7.581684      0.810285     -3.277851
  H     -10.122019      3.033835     -5.100379
  O     -10.230654      2.133694     -4.764759
  H     -10.307678      2.309351     -3.799285
  H      -8.851406     -2.904129     -4.104465
  O      -9.385699     -2.086259     -4.001612
  H      -8.985500     -1.461225     -4.617976
  H     -10.426077      4.053963     -2.854201
  O     -10.479517      3.286712     -2.261401
  H      -9.623480      3.304762     -1.777532
  S     -11.907821      0.009217     -1.837916
  H     -11.412755     -0.384686     -3.028729
  H     -11.565828      1.299855     -2.040509
30
Coordinates from ORCA-job neb_41_365_CI_MEP.QMRegion E -2059.687812963887
  H      -7.571212      3.808334     -1.975677
  O      -7.877015      3.223762     -1.245020
  H      -7.716573      2.315211     -1.606223
  H      -6.330425     -0.237784      1.174750
  O      -6.732942     -0.268531      0.285999
  H      -7.595680     -0.677915      0.387456
  H      -9.009518     -1.877058     -2.361961
  O      -8.516979     -1.631954     -1.552133
  H      -8.562972     -2.378584     -0.910626
  H      -7.767292     -3.773876      0.935448
  O      -8.463990     -3.666693      0.262990
  H      -8.361084     -4.441371     -0.324860
  H      -7.285142      1.615213     -5.293096
  O      -7.887351      0.873521     -5.092752
  H      -8.783442      1.289669     -5.064116
  H      -7.852210      0.037183     -1.978770
  O      -7.381327      0.795793     -2.367352
  H      -7.561361      0.788964     -3.329536
  H     -10.092649      3.050881     -5.097895
  O     -10.219948      2.135867     -4.811387
  H     -10.316749      2.263020     -3.840656
  H      -8.867614     -2.973756     -4.184422
  O      -9.449795     -2.185757     -4.100566
  H      -9.098169     -1.558739     -4.743622
  H     -10.435652      4.010791     -2.854474
  O     -10.446313      3.230853     -2.276954
  H      -9.572291      3.267862     -1.825055
  S     -11.551728      0.300572     -0.499044
  H     -11.697590     -0.120731     -1.771371
  H     -11.252154      1.552484     -0.902566
30
Coordinates from ORCA-job neb_41_365_CI_MEP.QMRegion E -2059.686733819125
  H      -7.603949      3.860760     -1.932408
  O      -7.907865      3.304487     -1.180142
  H      -7.771811      2.382307     -1.516950
  H      -6.333194     -0.253683      1.241021
  O      -6.772810     -0.284985      0.369000
  H      -7.601259     -0.752007      0.498214
  H      -9.040018     -1.831369     -2.228978
  O      -8.483923     -1.620044     -1.450793
  H      -8.538222     -2.374011     -0.818656
  H      -7.773101     -3.794384      0.990082
  O      -8.478646     -3.685645      0.326094
  H      -8.371459     -4.446832     -0.277095
  H      -7.322758      1.635069     -5.156468
  O      -7.919574      0.902397     -4.912760
  H      -8.814045      1.322007     -4.880503
  H      -7.847377      0.066641     -1.820134
  O      -7.416932      0.844693     -2.218722
  H      -7.596564      0.818549     -3.182723
  H     -10.128215      3.092459     -4.904786
  O     -10.257481      2.175194     -4.621442
  H     -10.382999      2.305275     -3.655797
  H      -8.902496     -2.954217     -4.077012
  O      -9.494589     -2.181617     -3.949159
  H      -9.183917     -1.529730     -4.588469
  H     -10.490592      4.117683     -2.750734
  O     -10.543589      3.379897     -2.123595
  H      -9.663567      3.396913     -1.687578
  S     -11.669754      0.169621     -0.478446
  H     -12.236471      0.720778     -1.568957
  H     -10.832807      1.218292     -0.344746
30
Coordinates from ORCA-job neb_41_365_CI_MEP.QMRegion E -2059.686995332169
  H      -7.611447      3.852330     -1.934973
  O      -7.909937      3.291883     -1.183922
  H      -7.769929      2.372384     -1.523443
  H      -6.329141     -0.257278      1.238478
  O      -6.778313     -0.294375      0.370764
  H      -7.592168     -0.783479      0.509747
  H      -9.042957     -1.841073     -2.243321
  O      -8.501954     -1.623790     -1.454075
  H      -8.543157     -2.386025     -0.830452
  H      -7.771456     -3.799890      0.985025
  O      -8.476041     -3.689452      0.320348
  H      -8.372160     -4.452836     -0.281126
  H      -7.318941      1.631224     -5.164710
  O      -7.915301      0.897467     -4.923068
  H      -8.811405      1.314561     -4.899514
  H      -7.836568      0.045844     -1.836844
  O      -7.412792      0.829572     -2.230605
  H      -7.593236      0.808481     -3.194969
  H     -10.117402      3.093235     -4.916812
  O     -10.254078      2.170330     -4.655865
  H     -10.396609      2.277776     -3.690576
  H      -8.896789     -2.959651     -4.086042
  O      -9.487226     -2.186829     -3.952353
  H      -9.185963     -1.535695     -4.596731
  H     -10.495533      4.089278     -2.763801
  O     -10.563176      3.348855     -2.141080
  H      -9.693085      3.362174     -1.687453
  S     -11.728772      0.061141     -0.630785
  H     -12.177903      1.101944     -1.360263
  H     -10.537082      0.664535     -0.443045
30
Coordinates from ORCA-job neb_41_365_CI_MEP.QMRegion E -2059.687291997235
  H      -7.578858      3.816781     -1.953137
  O      -7.876669      3.246006     -1.208916
  H      -7.721500      2.330583     -1.551371
  H      -6.301240     -0.253966      1.219119
  O      -6.758602     -0.298965      0.354663
  H      -7.568100     -0.789876      0.509915
  H      -9.009003     -1.873138     -2.277323
  O      -8.508743     -1.635191     -1.465470
  H      -8.523534     -2.404336     -0.845992
  H      -7.739703     -3.803973      0.974291
  O      -8.439278     -3.690414      0.304246
  H      -8.344847     -4.462005     -0.288698
  H      -7.276483      1.608583     -5.201413
  O      -7.874137      0.872325     -4.969393
  H      -8.770863      1.290850     -4.946865
  H      -7.795095      0.006282     -1.881390
  O      -7.376857      0.791977     -2.275178
  H      -7.547842      0.770868     -3.241139
  H     -10.058448      3.066268     -4.976995
  O     -10.187880      2.144956     -4.709461
  H     -10.320257      2.255921     -3.741617
  H      -8.859197     -2.962386     -4.113054
  O      -9.427381     -2.170684     -3.985263
  H      -9.094440     -1.529033     -4.623538
  H     -10.440421      4.029540     -2.790455
  O     -10.490099      3.266515     -2.193739
  H      -9.626703      3.289447     -1.724967
  S     -11.701670      0.087043     -0.532927
  H     -11.783369      1.229107     -1.245154
  H     -10.359466      0.047986     -0.661532
30
Coordinates from ORCA-job neb_41_365_CI_MEP.QMRegion E -2059.688879351840
  H      -7.567222      3.825068     -1.941553
  O      -7.868022      3.266950     -1.188771
  H      -7.719931      2.344303     -1.515549
  H      -6.289479     -0.240479      1.234324
  O      -6.757443     -0.290867      0.375719
  H      -7.590559     -0.728605      0.560327
  H      -8.980934     -1.897940     -2.257007
  O      -8.506772     -1.641996     -1.433547
  H      -8.501952     -2.410334     -0.809523
  H      -7.730494     -3.794959      0.998867
  O      -8.431594     -3.690317      0.327374
  H      -8.334746     -4.464877     -0.259725
  H      -7.267864      1.604206     -5.157060
  O      -7.869300      0.874528     -4.913202
  H      -8.759881      1.308168     -4.878099
  H      -7.791814      0.019161     -1.823527
  O      -7.379015      0.802113     -2.227221
  H      -7.545642      0.771312     -3.193984
  H     -10.033368      3.096860     -4.888312
  O     -10.150828      2.173404     -4.619560
  H     -10.282065      2.284529     -3.651401
  H      -8.845066     -2.944956     -4.091980
  O      -9.396352     -2.144076     -3.946216
  H      -9.033431     -1.486687     -4.552134
  H     -10.445095      4.049665     -2.699842
  O     -10.466164      3.284886     -2.105878
  H      -9.590357      3.319344     -1.657137
  S     -11.367636      0.221293     -0.095393
  H     -11.289526      1.265144     -0.947370
  H     -10.330433     -0.419991     -0.679325
30
Coordinates from ORCA-job neb_41_365_CI_MEP.QMRegion E -2059.692705165657
  H      -7.623760      3.831951     -1.994082
  O      -7.899188      3.227249     -1.266717
  H      -7.691351      2.328713     -1.636078
  H      -6.292472     -0.128654      1.164203
  O      -6.697282     -0.151294      0.278243
  H      -7.651604     -0.152584      0.428919
  H      -9.019970     -1.857232     -2.399950
  O      -8.547931     -1.561111     -1.592647
  H      -8.542900     -2.285260     -0.921950
  H      -7.779630     -3.669333      0.932071
  O      -8.460351     -3.575961      0.240887
  H      -8.360401     -4.371270     -0.316386
  H      -7.293054      1.629479     -5.322733
  O      -7.913668      0.903001     -5.122173
  H      -8.782120      1.365929     -5.021674
  H      -7.828865      0.050772     -2.018388
  O      -7.375807      0.826313     -2.399309
  H      -7.573493      0.836150     -3.358242
  H     -10.061023      3.235598     -4.719747
  O     -10.155803      2.272432     -4.611994
  H     -10.291734      2.201462     -3.644998
  H      -8.871984     -2.985815     -4.181080
  O      -9.463980     -2.205086     -4.096838
  H      -9.118305     -1.568740     -4.734231
  H     -11.023487      3.408649     -1.943599
  O     -10.473762      2.629355     -1.822093
  H      -9.575290      2.991729     -1.607975
  S     -10.114095      0.359160      0.843113
  H     -10.320180      1.316724     -0.094787
  H     -10.290292     -0.629842     -0.056955
