48
Coordinates from ORCA-job neb_7_239_CI_MEP.QMRegion E -2487.686348827151
  H      -1.627141     -0.856282     -4.575247
  O      -1.115407     -0.625100     -5.379497
  H      -0.378731     -0.086443     -5.057855
  H      -3.313555      1.541849     -4.090553
  O      -4.179699      1.085979     -3.916407
  H      -4.394942      1.226088     -2.952545
  H      -1.150710      1.557265     -3.876651
  O      -1.817105      2.156821     -4.273797
  H      -1.448617      2.504878     -5.115144
  H      -5.103184      5.795025     -5.515385
  O      -4.526776      5.006764     -5.605703
  H      -3.746299      5.256567     -6.135486
  H      -5.913840      4.634893     -2.914096
  O      -6.828497      4.537382     -3.260681
  H      -6.708160      3.833409     -3.936470
  H      -5.464759      3.474812     -5.590883
  O      -5.975135      2.721284     -5.233524
  H      -5.313649      2.204125     -4.723620
  H      -5.225293     -0.192649     -4.674725
  O      -5.820835     -0.907198     -4.958508
  H      -6.673913     -0.477266     -5.131666
  H      -7.469419      1.569915     -5.259502
  O      -8.020240      0.820586     -4.979457
  H      -8.920921      1.215040     -4.809852
  H      -1.647589      6.217014     -6.979228
  O      -2.034928      5.381833     -6.701890
  H      -1.783645      5.287070     -5.733283
  H     -10.288906      2.897575     -4.889508
  O     -10.317817      2.015684     -4.488488
  H     -10.449589      2.246582     -3.538652
  H      -1.322638      3.679647     -7.066853
  O      -0.852478      2.903243     -6.720540
  H      -1.045619      2.118840     -7.290923
  H      -0.110353      0.329096     -8.228098
  O      -1.030846      0.534891     -7.976945
  H      -1.191008      0.017965     -7.167167
  H      -5.862245      7.442375     -4.182012
  O      -6.379126      6.824451     -4.740364
  H      -6.616224      6.080447     -4.134879
  H      -9.845952      5.747541     -4.647563
  O     -10.380312      4.951942     -4.426911
  H     -11.289206      5.221962     -4.581157
  H      -9.290088      8.012055     -4.487120
  O      -9.056429      7.309906     -5.101317
  H      -8.075671      7.255961     -5.038067
  S      -3.939225      2.361058     -8.790932
  H      -4.522981      1.888387     -7.668259
  H      -3.021777      1.369700     -8.797781
48
Coordinates from ORCA-job neb_7_239_CI_MEP.QMRegion E -2487.682824519587
  H      -1.617167     -0.859887     -4.572202
  O      -1.110157     -0.628180     -5.378864
  H      -0.371372     -0.089869     -5.062063
  H      -3.297639      1.535281     -4.081226
  O      -4.165417      1.082112     -3.905507
  H      -4.377694      1.218534     -2.939800
  H      -1.140059      1.552648     -3.870790
  O      -1.805507      2.155086     -4.266348
  H      -1.437795      2.501231     -5.108436
  H      -5.081064      5.799102     -5.489418
  O      -4.497603      5.015077     -5.585061
  H      -3.722263      5.272649     -6.115918
  H      -5.907881      4.649908     -2.882111
  O      -6.822355      4.553452     -3.230816
  H      -6.698642      3.842658     -3.899500
  H      -5.440918      3.482303     -5.530025
  O      -5.959992      2.734579     -5.172759
  H      -5.301270      2.202890     -4.672193
  H      -5.210062     -0.200074     -4.665158
  O      -5.808897     -0.911676     -4.949011
  H      -6.661527     -0.479445     -5.118163
  H      -7.459893      1.571141     -5.231112
  O      -8.008536      0.813349     -4.971392
  H      -8.912820      1.201034     -4.801169
  H      -1.599532      6.232174     -6.956960
  O      -1.993869      5.394192     -6.698067
  H      -1.760410      5.289828     -5.724186
  H     -10.277951      2.877589     -4.886755
  O     -10.306917      1.997994     -4.479961
  H     -10.442145      2.234701     -3.532167
  H      -1.284829      3.700473     -7.052295
  O      -0.849073      2.902724     -6.709996
  H      -1.029934      2.119453     -7.293559
  H      -0.106870      0.352479     -8.222808
  O      -1.026736      0.568207     -7.978000
  H      -1.198890      0.035207     -7.181822
  H      -5.850256      7.444777     -4.172724
  O      -6.349179      6.810991     -4.729845
  H      -6.603110      6.081697     -4.112802
  H      -9.808032      5.700050     -4.734550
  O     -10.356093      4.933468     -4.454878
  H     -11.261534      5.216064     -4.607160
  H      -9.272379      7.989679     -4.965768
  O      -8.972129      7.179815     -5.387930
  H      -8.003754      7.164359     -5.209986
  S      -5.137516      2.782586     -8.954894
  H      -5.195017      2.162589     -7.757293
  H      -4.041459      2.090833     -9.325839
48
Coordinates from ORCA-job neb_7_239_CI_MEP.QMRegion E -2487.681353154916
  H      -1.621870     -0.856107     -4.578797
  O      -1.117069     -0.623599     -5.386562
  H      -0.377776     -0.085509     -5.070561
  H      -3.301558      1.537940     -4.083150
  O      -4.167734      1.083129     -3.906193
  H      -4.379053      1.219524     -2.940313
  H      -1.141948      1.555260     -3.875094
  O      -1.807789      2.158125     -4.269031
  H      -1.441478      2.505610     -5.110846
  H      -5.081210      5.803062     -5.489128
  O      -4.489962      5.024318     -5.587944
  H      -3.713200      5.295977     -6.108091
  H      -5.914348      4.658395     -2.880378
  O      -6.828381      4.562706     -3.229564
  H      -6.703023      3.852031     -3.898562
  H      -5.440169      3.486415     -5.521432
  O      -5.961410      2.743962     -5.157885
  H      -5.303694      2.206418     -4.662029
  H      -5.214052     -0.198146     -4.669411
  O      -5.813845     -0.910275     -4.949426
  H      -6.665876     -0.477237     -5.119636
  H      -7.465864      1.577550     -5.227735
  O      -8.012096      0.817207     -4.971004
  H      -8.918471      1.201164     -4.804120
  H      -1.580530      6.245763     -6.951075
  O      -1.983023      5.409247     -6.699846
  H      -1.754037      5.296192     -5.725172
  H     -10.283097      2.877972     -4.896607
  O     -10.314302      1.999185     -4.487813
  H     -10.449025      2.237001     -3.540722
  H      -1.277342      3.711219     -7.055301
  O      -0.850893      2.908847     -6.713354
  H      -1.031694      2.126476     -7.299922
  H      -0.108739      0.362158     -8.227986
  O      -1.027843      0.582639     -7.985661
  H      -1.207734      0.044352     -7.195124
  H      -5.853956      7.450159     -4.175602
  O      -6.344541      6.811657     -4.734347
  H      -6.607437      6.087511     -4.114957
  H      -9.798540      5.680228     -4.797252
  O     -10.354051      4.935417     -4.478226
  H     -11.256860      5.225614     -4.631856
  H      -9.258277      7.961676     -5.245756
  O      -8.929631      7.108652     -5.543145
  H      -7.974878      7.123630     -5.303259
  S      -5.946980      2.928713     -8.928503
  H      -5.522838      2.299721     -7.811642
  H      -4.734276      2.824459     -9.512579
48
Coordinates from ORCA-job neb_7_239_CI_MEP.QMRegion E -2487.681149228587
  H      -1.627759     -0.856163     -4.583862
  O      -1.126435     -0.622484     -5.393536
  H      -0.386451     -0.084856     -5.078623
  H      -3.307922      1.540078     -4.083464
  O      -4.173698      1.084838     -3.908772
  H      -4.386701      1.220560     -2.943410
  H      -1.146083      1.555762     -3.877588
  O      -1.812021      2.158950     -4.270806
  H      -1.447130      2.506958     -5.112669
  H      -5.087455      5.799958     -5.483876
  O      -4.493715      5.024347     -5.603129
  H      -3.712944      5.313195     -6.106901
  H      -5.923259      4.658527     -2.884127
  O      -6.835900      4.563037     -3.235472
  H      -6.709859      3.852257     -3.904789
  H      -5.459771      3.482142     -5.543136
  O      -5.969551      2.743295     -5.160621
  H      -5.301616      2.215045     -4.668780
  H      -5.221059     -0.194794     -4.676719
  O      -5.821091     -0.907863     -4.953605
  H      -6.670732     -0.472607     -5.130671
  H      -7.463894      1.584661     -5.238696
  O      -8.012349      0.826905     -4.977858
  H      -8.918345      1.212772     -4.816496
  H      -1.569723      6.251096     -6.950238
  O      -1.981703      5.417873     -6.703629
  H      -1.753181      5.296775     -5.729785
  H     -10.296353      2.884157     -4.896424
  O     -10.321182      2.002616     -4.492422
  H     -10.450860      2.233879     -3.543571
  H      -1.272854      3.714765     -7.065370
  O      -0.851773      2.912128     -6.719318
  H      -1.033397      2.130223     -7.308022
  H      -0.116360      0.376529     -8.233559
  O      -1.036103      0.599878     -7.997224
  H      -1.225580      0.057834     -7.211892
  H      -5.855578      7.443787     -4.179883
  O      -6.342547      6.804226     -4.740255
  H      -6.617106      6.084493     -4.120094
  H      -9.793081      5.660238     -4.852675
  O     -10.349972      4.934452     -4.495705
  H     -11.252438      5.224347     -4.651223
  H      -9.251412      7.917105     -5.457562
  O      -8.904546      7.044482     -5.663356
  H      -7.964000      7.086513     -5.379070
  S      -6.564808      2.906513     -8.823282
  H      -5.713360      2.453505     -7.880136
  H      -5.603151      3.652954     -9.398734
48
Coordinates from ORCA-job neb_7_239_CI_MEP.QMRegion E -2487.681089161013
  H      -1.625958     -0.852781     -4.583299
  O      -1.123968     -0.619842     -5.392694
  H      -0.384427     -0.081258     -5.078271
  H      -3.301978      1.541796     -4.081591
  O      -4.166598      1.084720     -3.905177
  H      -4.380520      1.221556     -2.940166
  H      -1.142631      1.559698     -3.878122
  O      -1.807971      2.163868     -4.270452
  H      -1.443856      2.510877     -5.113363
  H      -5.067763      5.816348     -5.480421
  O      -4.482208      5.036533     -5.611587
  H      -3.691821      5.323590     -6.102381
  H      -5.923993      4.658764     -2.883297
  O      -6.835123      4.565359     -3.238457
  H      -6.704159      3.854215     -3.907717
  H      -5.421832      3.487775     -5.512667
  O      -5.948227      2.753528     -5.144577
  H      -5.292997      2.206906     -4.655385
  H      -5.213642     -0.197108     -4.674892
  O      -5.815792     -0.908693     -4.950524
  H      -6.664768     -0.470868     -5.125954
  H      -7.461306      1.584815     -5.250154
  O      -8.001620      0.825693     -4.977726
  H      -8.910192      1.206942     -4.820786
  H      -1.551392      6.253158     -6.953735
  O      -1.969356      5.424063     -6.703188
  H      -1.739516      5.302359     -5.729679
  H     -10.277131      2.880396     -4.915314
  O     -10.310702      2.003054     -4.503265
  H     -10.446421      2.241060     -3.557443
  H      -1.272901      3.715834     -7.065595
  O      -0.851144      2.913999     -6.718279
  H      -1.030884      2.131387     -7.306596
  H      -0.109676      0.375687     -8.235823
  O      -1.028565      0.599530     -7.996573
  H      -1.216489      0.055544     -7.212369
  H      -5.854224      7.450892     -4.173050
  O      -6.330165      6.805863     -4.736854
  H      -6.607512      6.084943     -4.118488
  H      -9.770957      5.641073     -4.902382
  O     -10.338157      4.938077     -4.520256
  H     -11.235997      5.241989     -4.675655
  H      -9.198007      7.867332     -5.682273
  O      -8.837253      6.981263     -5.774261
  H      -7.918175      7.056636     -5.430505
  S      -6.988156      2.954316     -8.698763
  H      -5.912496      2.706796     -7.922752
  H      -6.581458      4.212721     -8.957059
48
Coordinates from ORCA-job neb_7_239_CI_MEP.QMRegion E -2487.682256960161
  H      -1.625811     -0.851223     -4.587802
  O      -1.125766     -0.617750     -5.398121
  H      -0.385766     -0.079152     -5.084651
  H      -3.300911      1.542154     -4.082155
  O      -4.165361      1.084798     -3.906696
  H      -4.380527      1.221428     -2.942129
  H      -1.140735      1.560332     -3.879062
  O      -1.806214      2.164686     -4.270855
  H      -1.442013      2.514417     -5.112484
  H      -5.068839      5.817949     -5.479575
  O      -4.484818      5.038465     -5.619101
  H      -3.697253      5.327551     -6.113271
  H      -5.924989      4.660401     -2.882280
  O      -6.835371      4.566917     -3.239048
  H      -6.702518      3.854646     -3.907605
  H      -5.417415      3.490053     -5.513788
  O      -5.945927      2.760016     -5.141248
  H      -5.289135      2.210279     -4.657857
  H      -5.212495     -0.195354     -4.679392
  O      -5.815798     -0.906687     -4.953091
  H      -6.663078     -0.466493     -5.131545
  H      -7.462378      1.587807     -5.268767
  O      -7.997892      0.831133     -4.980910
  H      -8.906357      1.212715     -4.827802
  H      -1.548453      6.258613     -6.951424
  O      -1.968695      5.429793     -6.703745
  H      -1.741408      5.305594     -5.730174
  H     -10.281528      2.883984     -4.914644
  O     -10.311710      2.005531     -4.504529
  H     -10.444056      2.239001     -3.557466
  H      -1.266352      3.723826     -7.065698
  O      -0.847678      2.920318     -6.718523
  H      -1.029811      2.139681     -7.308799
  H      -0.111089      0.386921     -8.238222
  O      -1.030707      0.612286     -8.003319
  H      -1.224345      0.066426     -7.221968
  H      -5.850312      7.449899     -4.173266
  O      -6.327736      6.804609     -4.735785
  H      -6.607427      6.084941     -4.116427
  H      -9.754284      5.621507     -4.958760
  O     -10.324252      4.944034     -4.538722
  H     -11.220998      5.252831     -4.690492
  H      -9.153407      7.775479     -5.941153
  O      -8.776361      6.891910     -5.907484
  H      -7.889307      7.018648     -5.500159
  S      -7.510850      3.240598     -8.423011
  H      -6.288026      3.062863     -7.880881
  H      -7.428297      4.580728     -8.310839
48
Coordinates from ORCA-job neb_7_239_CI_MEP.QMRegion E -2487.685213387603
  H      -1.624019     -0.850518     -4.588392
  O      -1.125843     -0.617318     -5.399893
  H      -0.385024     -0.078765     -5.088359
  H      -3.296739      1.542515     -4.081566
  O      -4.161456      1.084271     -3.909310
  H      -4.380744      1.222762     -2.946362
  H      -1.137004      1.560474     -3.878896
  O      -1.802416      2.164807     -4.270784
  H      -1.440139      2.512750     -5.113908
  H      -5.053571      5.817157     -5.493587
  O      -4.469277      5.038398     -5.626276
  H      -3.683117      5.325865     -6.123410
  H      -5.926026      4.657766     -2.893086
  O      -6.834038      4.562753     -3.255416
  H      -6.694913      3.850203     -3.923479
  H      -5.397164      3.480924     -5.537264
  O      -5.934362      2.761184     -5.158193
  H      -5.283171      2.205291     -4.675114
  H      -5.204668     -0.200844     -4.685497
  O      -5.811921     -0.909707     -4.956408
  H      -6.655650     -0.464089     -5.139575
  H      -7.460260      1.590446     -5.284931
  O      -7.986937      0.831408     -4.987205
  H      -8.898428      1.207243     -4.841009
  H      -1.525104      6.256159     -6.952704
  O      -1.950827      5.429503     -6.707281
  H      -1.730888      5.305028     -5.731912
  H     -10.256662      2.872418     -4.943868
  O     -10.305483      2.001734     -4.520121
  H     -10.441779      2.244758     -3.576892
  H      -1.257714      3.724790     -7.066025
  O      -0.842046      2.919941     -6.717942
  H      -1.022165      2.140665     -7.310613
  H      -0.100758      0.390337     -8.242247
  O      -1.021397      0.616295     -8.010987
  H      -1.219903      0.067307     -7.233403
  H      -5.854610      7.452887     -4.186798
  O      -6.325725      6.803685     -4.749961
  H      -6.604291      6.081399     -4.131954
  H      -9.730041      5.592398     -5.027072
  O     -10.311591      4.952946     -4.572387
  H     -11.201547      5.280655     -4.724933
  H      -9.003889      7.599649     -6.373526
  O      -8.661002      6.749242     -6.085892
  H      -7.817302      6.954511     -5.618183
  S      -8.235100      3.685189     -7.835413
  H      -6.897673      3.581918     -7.694875
  H      -8.252036      4.951184     -7.366083
