27
Coordinates from ORCA-job neb_1_372_CI_MEP.QMRegion E -1988.350183679130
  H       0.632583     -5.025006      1.906951
  O       0.139739     -5.135416      2.741449
  H       0.256696     -6.074366      2.953446
  H       1.905125     -3.626880      4.225079
  O       1.762461     -4.020202      5.113248
  H       2.229853     -3.402237      5.704334
  H       3.333153     -6.063077      3.203831
  O       3.703316     -5.899385      2.303530
  H       2.980563     -5.559278      1.737734
  H       4.392257     -2.268201      5.617135
  O       4.011773     -2.678922      6.428398
  H       4.411372     -3.562698      6.422340
  H       2.345171     -5.513911      5.040864
  O       2.888676     -6.333436      4.839202
  H       2.391482     -7.120468      5.117138
  H       5.757784     -5.260921      4.785956
  O       5.320585     -5.210454      5.664392
  H       4.498067     -5.718832      5.548208
  H      -0.393709     -8.017266      2.174331
  O       0.444915     -7.954603      2.663268
  H       1.157470     -8.223677      2.054653
  H       3.681916     -8.924651      0.971410
  O       2.964429     -8.407288      1.355616
  H       3.389915     -7.590501      1.686919
  S       1.483607     -9.407066      5.412859
  H       0.821460     -9.044207      4.281898
  H       2.517428     -9.898145      4.698715
27
Coordinates from ORCA-job neb_1_372_CI_MEP.QMRegion E -1988.346551560429
  H       0.626167     -5.043211      1.898215
  O       0.130988     -5.146844      2.731294
  H       0.237060     -6.089874      2.945503
  H       1.957664     -3.567882      4.140784
  O       1.882176     -3.997958      5.023905
  H       2.431343     -3.431388      5.598465
  H       3.336666     -6.127040      3.032721
  O       3.734049     -5.927865      2.149736
  H       3.014832     -5.575366      1.584257
  H       4.486462     -2.282339      5.561631
  O       4.139938     -2.782118      6.339962
  H       4.493119     -3.677183      6.178814
  H       2.400700     -5.429256      4.802634
  O       2.821727     -6.329272      4.590572
  H       2.154727     -6.989012      4.826875
  H       5.765176     -5.285790      4.674839
  O       5.275734     -5.275509      5.532321
  H       4.477897     -5.801640      5.354692
  H      -0.417131     -8.028918      2.292477
  O       0.408389     -7.963067      2.799811
  H       1.115682     -8.248700      2.194475
  H       3.470462     -9.074825      0.944517
  O       2.802358     -8.444925      1.234992
  H       3.307154     -7.651223      1.499390
  S       1.326752     -8.651147      6.513915
  H       1.549558     -9.439618      5.442929
  H       2.643536     -8.489936      6.754531
27
Coordinates from ORCA-job neb_1_372_CI_MEP.QMRegion E -1988.344283159404
  H       0.636014     -5.014614      1.899389
  O       0.142762     -5.120074      2.734081
  H       0.237798     -6.065699      2.937518
  H       1.978197     -3.579105      4.158447
  O       1.907693     -4.012869      5.039331
  H       2.433312     -3.431484      5.620308
  H       3.347170     -6.097856      3.078694
  O       3.735994     -5.909444      2.189527
  H       3.015311     -5.559616      1.623750
  H       4.493530     -2.259802      5.579845
  O       4.144774     -2.737367      6.371841
  H       4.486907     -3.637332      6.234360
  H       2.376598     -5.489489      4.834684
  O       2.737653     -6.411800      4.617328
  H       1.962081     -6.973401      4.506602
  H       5.769709     -5.258658      4.668381
  O       5.306850     -5.225026      5.541578
  H       4.617359     -5.895158      5.485117
  H      -0.383231     -8.007149      2.365111
  O       0.451999     -7.910366      2.850857
  H       1.152079     -8.208655      2.239721
  H       3.444649     -9.063569      1.025358
  O       2.791840     -8.401043      1.274036
  H       3.315599     -7.620792      1.542074
  S       1.700881     -8.795453      7.105690
  H       1.739103     -9.228630      5.828277
  H       2.475400     -7.731358      6.809063
27
Coordinates from ORCA-job neb_1_372_CI_MEP.QMRegion E -1988.344266738679
  H       0.642430     -4.997626      1.903806
  O       0.141964     -5.098342      2.734945
  H       0.235814     -6.041659      2.946739
  H       1.985728     -3.582542      4.179171
  O       1.915536     -4.007610      5.062005
  H       2.403771     -3.398534      5.643861
  H       3.346324     -6.104998      3.119383
  O       3.743423     -5.898512      2.232330
  H       3.024298     -5.549736      1.665805
  H       4.491220     -2.222471      5.603270
  O       4.115346     -2.643951      6.415206
  H       4.464095     -3.544073      6.370098
  H       2.381403     -5.549455      4.856842
  O       2.648762     -6.479068      4.593067
  H       1.819647     -6.929827      4.393889
  H       5.794263     -5.171027      4.663304
  O       5.370753     -5.076951      5.556156
  H       5.542374     -5.905238      6.009953
  H      -0.391139     -7.975817      2.379419
  O       0.438131     -7.882015      2.875635
  H       1.146727     -8.179669      2.273472
  H       3.430126     -9.040872      1.076630
  O       2.780773     -8.366032      1.298547
  H       3.308642     -7.593651      1.582867
  S       1.962563     -8.641450      7.320892
  H       1.951573     -9.203874      6.094573
  H       2.416274     -7.478143      6.806680
27
Coordinates from ORCA-job neb_1_372_CI_MEP.QMRegion E -1988.343833815623
  H       0.641002     -4.998897      1.900780
  O       0.137311     -5.105243      2.729432
  H       0.223297     -6.052066      2.927939
  H       1.985949     -3.605604      4.176970
  O       1.917624     -4.033955      5.057859
  H       2.410980     -3.428463      5.638783
  H       3.337081     -6.126078      3.097741
  O       3.746404     -5.902866      2.219363
  H       3.029524     -5.554016      1.650166
  H       4.489501     -2.234852      5.599974
  O       4.114729     -2.659360      6.410811
  H       4.470243     -3.557138      6.368301
  H       2.363037     -5.607754      4.831368
  O       2.608506     -6.529348      4.533706
  H       1.770603     -6.950685      4.307084
  H       5.803980     -5.192253      4.675537
  O       5.388271     -5.102008      5.572664
  H       5.606363     -5.912171      6.039749
  H      -0.400102     -7.986371      2.362788
  O       0.431990     -7.891736      2.854076
  H       1.138901     -8.193235      2.251644
  H       3.423645     -9.055717      1.069640
  O       2.777013     -8.377403      1.288732
  H       3.307904     -7.605442      1.568104
  S       2.241444     -8.626018      7.397698
  H       2.513166     -8.610179      6.077955
  H       2.217306     -7.278295      7.422804
27
Coordinates from ORCA-job neb_1_372_CI_MEP.QMRegion E -1988.345478580349
  H       0.631343     -4.960657      1.892263
  O       0.131470     -5.073223      2.721883
  H       0.209685     -6.024117      2.906198
  H       1.969425     -3.573021      4.173201
  O       1.892304     -4.002293      5.054196
  H       2.394793     -3.403840      5.636125
  H       3.318945     -6.080983      3.083833
  O       3.739804     -5.872756      2.209352
  H       3.029152     -5.517699      1.634433
  H       4.459893     -2.205158      5.592974
  O       4.073642     -2.629008      6.399490
  H       4.446702     -3.519905      6.366950
  H       2.301532     -5.548759      4.807042
  O       2.538731     -6.475518      4.500579
  H       1.702326     -6.885426      4.246406
  H       5.780799     -5.157694      4.660587
  O       5.340269     -5.049363      5.543046
  H       5.483666     -5.874670      6.013084
  H      -0.424672     -7.931961      2.351677
  O       0.408178     -7.833295      2.842136
  H       1.117002     -8.130635      2.238541
  H       3.373475     -9.005129      1.079679
  O       2.735626     -8.311440      1.273782
  H       3.274984     -7.545728      1.555875
  S       2.677677     -8.164433      7.446901
  H       2.719797     -7.739388      6.159937
  H       2.138717     -6.990082      7.835219
27
Coordinates from ORCA-job neb_1_372_CI_MEP.QMRegion E -1988.347543990884
  H       0.642319     -4.988186      1.874172
  O       0.138810     -5.118152      2.700574
  H       0.226078     -6.071040      2.860186
  H       1.942628     -3.605166      4.161181
  O       1.838391     -4.041306      5.036174
  H       2.355971     -3.464493      5.627824
  H       3.325049     -6.104877      3.108042
  O       3.746688     -5.883204      2.239432
  H       3.033600     -5.541985      1.660720
  H       4.385340     -2.231801      5.597218
  O       3.975993     -2.633712      6.401589
  H       4.389532     -3.506784      6.430889
  H       2.221644     -5.587927      4.774225
  O       2.509226     -6.517910      4.523626
  H       1.710271     -6.983237      4.244171
  H       5.761894     -5.194102      4.709052
  O       5.304391     -5.012899      5.565988
  H       5.311271     -5.823451      6.083972
  H      -0.333288     -8.025582      2.271504
  O       0.505715     -7.909783      2.744669
  H       1.213983     -8.210332      2.143527
  H       3.605267     -8.991683      1.008279
  O       2.917149     -8.371164      1.272226
  H       3.398679     -7.576333      1.575168
  S       3.020069     -6.909970      7.814326
  H       2.761481     -6.992527      6.481492
  H       2.267953     -5.793679      7.924602
