36
Coordinates from ORCA-job neb_4_18_CI_MEP.QMRegion E -2202.359453170659
  H       1.976173     -3.650918      4.140109
  O       1.817749     -4.089948      5.003947
  H       2.413705     -3.616739      5.609767
  H       4.413179     -2.522096      5.582312
  O       4.170756     -3.075561      6.351588
  H       4.504836     -3.970894      6.100139
  H       4.941298     -2.179989      3.563626
  O       4.936766     -1.467568      4.241487
  H       4.113375     -0.940318      4.055348
  H       1.998737     -0.767905      5.209347
  O       1.498947     -1.325443      5.835333
  H       1.475627     -0.865411      6.692028
  H       5.699117     -5.406657      4.694840
  O       5.138323     -5.476844      5.497019
  H       4.366944     -5.997555      5.220249
  H       3.830392     -1.047668      7.182271
  O       3.974557     -0.092021      7.224489
  H       4.570215      0.094498      6.487910
  H       6.629960      1.103782      4.681968
  O       6.225457      1.667401      5.373490
  H       6.363149      2.579848      5.015534
  H       7.523258     -0.661731      3.066628
  O       6.862315      0.023301      3.243100
  H       6.108079     -0.522553      3.589240
  H       1.818980      2.291863      8.488260
  O       2.573319      2.322373      7.876512
  H       2.852714      1.398899      7.768287
  H       4.471153      2.053488      5.083044
  O       3.525020      2.263734      4.966233
  H       3.124279      2.285004      5.843809
  H       7.476732     -2.096394      6.517833
  O       7.410807     -2.899889      5.971242
  H       6.530134     -3.244017      6.162825
  S       7.376469     -0.204688      7.997953
  H       6.057873     -0.325287      8.271180
  H       7.129416      0.743738      7.059759
36
Coordinates from ORCA-job neb_4_18_CI_MEP.QMRegion E -2202.355661719206
  H       1.987488     -3.641344      4.129911
  O       1.849346     -4.066361      5.004334
  H       2.463154     -3.577532      5.581880
  H       4.485832     -2.430712      5.515925
  O       4.204814     -2.999720      6.259109
  H       4.516719     -3.891988      5.977711
  H       4.975792     -2.117039      3.485984
  O       5.002212     -1.387829      4.143367
  H       4.162090     -0.874700      3.994943
  H       1.998670     -0.721793      5.206950
  O       1.529054     -1.285148      5.851534
  H       1.479796     -0.822072      6.706596
  H       5.713452     -5.362638      4.610018
  O       5.156166     -5.403822      5.420667
  H       4.386230     -5.938056      5.170023
  H       4.048222     -0.554564      6.807665
  O       4.313139      0.297633      7.173180
  H       4.952837      0.673991      6.537568
  H       6.568743      1.136988      4.720644
  O       6.121404      1.685821      5.395340
  H       6.274733      2.603472      5.055254
  H       7.622415     -0.469048      3.025609
  O       6.902089      0.140031      3.225962
  H       6.180317     -0.473189      3.537939
  H       1.879747      2.328637      8.534925
  O       2.629692      2.462780      7.933362
  H       3.055505      1.595857      7.827673
  H       4.407493      2.091846      5.011702
  O       3.456738      2.289608      4.917922
  H       3.078496      2.299622      5.804916
  H       7.401928     -2.382510      6.651545
  O       7.415262     -3.025681      5.921257
  H       6.576686     -3.493099      6.004308
  S       6.880454     -1.360760      8.717533
  H       6.063679     -2.409907      8.948175
  H       5.858925     -0.619449      8.216194
36
Coordinates from ORCA-job neb_4_18_CI_MEP.QMRegion E -2202.354593447183
  H       1.990400     -3.638647      4.134821
  O       1.847904     -4.068333      5.006278
  H       2.467730     -3.593086      5.589647
  H       4.471154     -2.470248      5.567309
  O       4.188874     -3.055470      6.296896
  H       4.514605     -3.938791      6.005431
  H       4.961747     -2.134492      3.522087
  O       4.981907     -1.412391      4.187234
  H       4.148581     -0.892817      4.025498
  H       1.992099     -0.708677      5.203829
  O       1.537957     -1.278423      5.854724
  H       1.474795     -0.810417      6.706689
  H       5.718083     -5.390979      4.613272
  O       5.169286     -5.445589      5.429071
  H       4.391394     -5.966163      5.173583
  H       3.955349     -0.518918      6.776650
  O       4.274037      0.268194      7.231871
  H       4.963165      0.642973      6.652771
  H       6.559708      1.134814      4.746549
  O       6.116238      1.691541      5.415566
  H       6.272992      2.604546      5.065424
  H       7.584569     -0.503677      3.034440
  O       6.877101      0.120755      3.235312
  H       6.150878     -0.479213      3.558261
  H       1.876445      2.323170      8.537139
  O       2.625293      2.456570      7.934488
  H       3.059949      1.591281      7.839223
  H       4.406087      2.070755      5.048187
  O       3.457765      2.279322      4.941253
  H       3.068385      2.280482      5.823896
  H       7.392811     -2.453042      6.697314
  O       7.411132     -3.049243      5.929683
  H       6.587903     -3.545658      5.999879
  S       6.765211     -1.623944      8.841758
  H       6.352561     -2.869789      9.152459
  H       5.561567     -1.279041      8.335115
36
Coordinates from ORCA-job neb_4_18_CI_MEP.QMRegion E -2202.354340091597
  H       2.007835     -3.626184      4.158200
  O       1.860612     -4.066093      5.023727
  H       2.460204     -3.591782      5.625071
  H       4.498292     -2.477768      5.646716
  O       4.234430     -3.052858      6.393643
  H       4.542914     -3.940732      6.099507
  H       4.947234     -2.159348      3.569608
  O       4.961035     -1.446188      4.244557
  H       4.135925     -0.916687      4.071782
  H       2.005543     -0.722719      5.230577
  O       1.537915     -1.294711      5.868463
  H       1.473672     -0.832105      6.723996
  H       5.727029     -5.394603      4.643662
  O       5.185152     -5.451824      5.463404
  H       4.403803     -5.968025      5.208888
  H       3.979984     -0.556958      6.900541
  O       4.256497      0.280628      7.286357
  H       4.968564      0.614350      6.713966
  H       6.578301      1.122802      4.779295
  O       6.136615      1.686235      5.442654
  H       6.287388      2.594819      5.082400
  H       7.555265     -0.555561      3.057757
  O       6.862665      0.088566      3.253080
  H       6.131303     -0.492636      3.590549
  H       1.875520      2.328441      8.567993
  O       2.622773      2.461416      7.963842
  H       3.065217      1.598235      7.881254
  H       4.414267      2.047377      5.082183
  O       3.468647      2.267849      4.974639
  H       3.077934      2.238526      5.856278
  H       7.466917     -2.509724      6.766883
  O       7.447786     -3.065704      5.970610
  H       6.634338     -3.574438      6.061328
  S       6.621511     -1.743870      8.903437
  H       6.655231     -3.002423      9.390616
  H       5.443846     -1.958749      8.280866
36
Coordinates from ORCA-job neb_4_18_CI_MEP.QMRegion E -2202.354076450074
  H       2.008159     -3.622643      4.154966
  O       1.857413     -4.070599      5.016687
  H       2.423099     -3.579967      5.633562
  H       4.492815     -2.454275      5.688381
  O       4.259326     -3.041882      6.440374
  H       4.556589     -3.926820      6.122857
  H       4.930550     -2.164065      3.592464
  O       4.943520     -1.464285      4.280374
  H       4.123752     -0.921727      4.112304
  H       2.028824     -0.758322      5.250909
  O       1.518410     -1.322132      5.861705
  H       1.484401     -0.874978      6.725356
  H       5.725853     -5.383348      4.639778
  O       5.183492     -5.430555      5.460550
  H       4.404031     -5.952945      5.212250
  H       4.105440     -0.600557      7.222324
  O       4.088668      0.350516      7.099822
  H       4.934479      0.600964      6.692717
  H       6.598107      1.124763      4.789641
  O       6.160080      1.687125      5.455478
  H       6.304010      2.595410      5.093966
  H       7.527015     -0.588195      3.064070
  O       6.848391      0.070997      3.260821
  H       6.111760     -0.494842      3.609208
  H       1.867956      2.384300      8.600374
  O       2.622114      2.532458      8.008661
  H       3.048575      1.666123      7.899157
  H       4.420891      2.051308      5.048659
  O       3.480137      2.284707      4.938150
  H       3.082177      2.215208      5.812928
  H       7.480666     -2.548162      6.776397
  O       7.462457     -3.076978      5.963240
  H       6.659024     -3.603193      6.040364
  S       6.386412     -1.830737      8.818325
  H       6.546459     -2.981626      9.503577
  H       5.400940     -2.366957      8.043550
36
Coordinates from ORCA-job neb_4_18_CI_MEP.QMRegion E -2202.354903252995
  H       1.982197     -3.653001      4.137886
  O       1.820709     -4.105819      4.995128
  H       2.396443     -3.633743      5.618183
  H       4.429442     -2.545799      5.701045
  O       4.199251     -3.192049      6.404878
  H       4.532119     -4.051160      6.048061
  H       4.903670     -2.198936      3.609657
  O       4.909348     -1.513741      4.311972
  H       4.098488     -0.960680      4.140650
  H       2.027849     -0.805183      5.234997
  O       1.497000     -1.361152      5.835579
  H       1.502261     -0.933869      6.707445
  H       5.717176     -5.467964      4.607622
  O       5.183147     -5.538319      5.432594
  H       4.391137     -6.040094      5.176359
  H       4.225574     -0.493417      7.555842
  O       4.021860      0.277253      7.019697
  H       4.872973      0.588667      6.666700
  H       6.551901      1.080493      4.754938
  O       6.122355      1.652999      5.418751
  H       6.288225      2.559931      5.064472
  H       7.467259     -0.666474      3.055162
  O       6.806116      0.011956      3.252461
  H       6.059926     -0.538026      3.605484
  H       1.851486      2.326429      8.556550
  O       2.607996      2.476394      7.968127
  H       3.017801      1.604521      7.823120
  H       4.406228      2.038456      5.037415
  O       3.467382      2.280544      4.924306
  H       3.056972      2.224039      5.794084
  H       7.412052     -2.683656      6.779662
  O       7.420412     -3.153653      5.931524
  H       6.652519     -3.734252      5.968680
  S       6.186349     -1.947365      8.666189
  H       6.210768     -2.965858      9.549253
  H       5.285343     -2.585749      7.843038
36
Coordinates from ORCA-job neb_4_18_CI_MEP.QMRegion E -2202.355874497658
  H       1.955168     -3.692063      4.099839
  O       1.788312     -4.135688      4.960583
  H       2.404246     -3.685551      5.564695
  H       4.417067     -2.645907      5.585054
  O       4.128805     -3.326508      6.232649
  H       4.512165     -4.177350      5.901372
  H       4.932487     -2.180241      3.577139
  O       4.941849     -1.507511      4.291246
  H       4.127673     -0.956762      4.134700
  H       2.030184     -0.823010      5.193867
  O       1.505847     -1.371616      5.808128
  H       1.549897     -0.953522      6.681706
  H       5.744197     -5.553970      4.568941
  O       5.224980     -5.653314      5.402242
  H       4.426281     -6.144840      5.144193
  H       4.488444     -0.371247      7.817445
  O       4.159433      0.264577      7.167179
  H       4.953204      0.636753      6.746434
  H       6.547487      1.104633      4.786242
  O       6.117578      1.679410      5.446610
  H       6.273513      2.583812      5.078798
  H       7.516249     -0.596579      3.058790
  O       6.829093      0.051423      3.261727
  H       6.098913     -0.524580      3.608149
  H       1.839417      2.243965      8.500976
  O       2.595171      2.407184      7.916360
  H       3.056331      1.553096      7.806082
  H       4.395028      2.028926      5.083471
  O       3.457266      2.266967      4.953133
  H       3.029138      2.218124      5.816420
  H       7.347219     -2.975892      6.904125
  O       7.365079     -3.282554      5.986760
  H       6.688749     -3.968902      5.955652
  S       5.790696     -2.278567      8.653063
  H       5.343267     -3.146016      9.582473
  H       4.994270     -2.818308      7.646537
