18
Coordinates from ORCA-job neb_40_158_CI_MEP.QMRegion E -1774.360863126293
  H       7.885868     -1.692695     -4.047922
  O       7.675021     -1.349989     -3.147166
  H       7.154693     -0.521773     -3.304857
  H       8.701594     -5.197185     -2.951067
  O       8.036657     -5.559883     -2.332156
  H       7.986476     -6.522047     -2.402876
  H       9.473535      0.551121     -0.555060
  O       8.553252      0.457391     -0.274077
  H       8.463931     -0.450080      0.056002
  H       9.523858     -2.315485     -0.836872
  O       9.889142     -2.147851     -1.723390
  H       9.167031     -1.653720     -2.167879
  H       9.943029     -3.430169     -3.132678
  O       9.744195     -4.056105     -3.856765
  H       9.353176     -3.513265     -4.555786
  S      11.866105      0.540387     -1.338510
  H      11.368215     -0.699951     -1.584632
  H      11.658386      0.939742     -2.610817
18
Coordinates from ORCA-job neb_40_158_CI_MEP.QMRegion E -1774.355791108704
  H       7.846402     -1.662083     -4.049764
  O       7.625272     -1.325467     -3.150987
  H       7.100193     -0.497737     -3.307219
  H       8.655849     -5.146393     -2.945341
  O       8.008693     -5.541602     -2.324380
  H       7.970019     -6.501934     -2.409794
  H       9.447714      0.405233     -0.579596
  O       8.557663      0.457404     -0.223706
  H       8.380359     -0.436772      0.112832
  H       9.428884     -2.253710     -0.819288
  O       9.791397     -2.070519     -1.703964
  H       9.062588     -1.596192     -2.160538
  H       9.809072     -3.335486     -3.061315
  O       9.640651     -3.965680     -3.792485
  H       9.267159     -3.431246     -4.507986
  S      12.737992     -0.294202     -1.918438
  H      11.842495     -1.305916     -1.901625
  H      11.989831      0.403305     -2.796108
18
Coordinates from ORCA-job neb_40_158_CI_MEP.QMRegion E -1774.354579607831
  H       7.848914     -1.686670     -4.057195
  O       7.624921     -1.346837     -3.158551
  H       7.099953     -0.520208     -3.316600
  H       8.654599     -5.193265     -2.932039
  O       7.998221     -5.575912     -2.315457
  H       7.959299     -6.538140     -2.388875
  H       9.366199      0.298428     -0.660767
  O       8.514384      0.406156     -0.224820
  H       8.323867     -0.480143      0.124469
  H       9.448752     -2.239527     -0.829790
  O       9.815900     -2.027236     -1.705256
  H       9.064778     -1.605999     -2.177961
  H       9.826056     -3.351015     -3.065210
  O       9.640272     -3.993539     -3.779572
  H       9.276911     -3.467570     -4.505616
  S      13.046116     -0.823648     -2.329120
  H      12.073177     -1.730317     -2.107231
  H      12.134439      0.094541     -2.709783
18
Coordinates from ORCA-job neb_40_158_CI_MEP.QMRegion E -1774.354149827827
  H       7.850837     -1.692986     -4.061107
  O       7.625333     -1.355342     -3.161052
  H       7.102432     -0.527232     -3.316283
  H       8.669140     -5.213104     -2.918442
  O       8.001371     -5.584426     -2.308325
  H       7.959645     -6.547773     -2.372612
  H       9.353075      0.250271     -0.708402
  O       8.522027      0.382815     -0.245945
  H       8.326960     -0.497839      0.120720
  H       9.468970     -2.256139     -0.843028
  O       9.825771     -2.029671     -1.718838
  H       9.059680     -1.627987     -2.184663
  H       9.839903     -3.366422     -3.049859
  O       9.674633     -4.016531     -3.763436
  H       9.311886     -3.498861     -4.495591
  S      13.173400     -1.167369     -2.520847
  H      12.277772     -2.168655     -2.427508
  H      12.182542     -0.254361     -2.530380
18
Coordinates from ORCA-job neb_40_158_CI_MEP.QMRegion E -1774.354472185355
  H       7.843893     -1.697980     -4.069730
  O       7.616330     -1.361021     -3.169306
  H       7.095013     -0.531567     -3.323081
  H       8.674088     -5.219725     -2.925410
  O       8.002635     -5.585567     -2.316973
  H       7.957535     -6.549089     -2.380204
  H       9.327392      0.216538     -0.768398
  O       8.518257      0.370805     -0.273925
  H       8.321445     -0.502402      0.109090
  H       9.471064     -2.248142     -0.865025
  O       9.820549     -2.008851     -1.740126
  H       9.043643     -1.623132     -2.203499
  H       9.836091     -3.355453     -3.051586
  O       9.691972     -4.011023     -3.765590
  H       9.326401     -3.501174     -4.501989
  S      13.214341     -1.545104     -2.740137
  H      12.346553     -2.569222     -2.851863
  H      12.215671     -0.705008     -2.406537
18
Coordinates from ORCA-job neb_40_158_CI_MEP.QMRegion E -1774.355682493204
  H       7.843590     -1.699110     -4.072945
  O       7.616620     -1.362684     -3.171855
  H       7.095931     -0.532559     -3.324707
  H       8.690856     -5.218742     -2.931095
  O       8.012986     -5.579391     -2.327957
  H       7.965159     -6.543027     -2.391465
  H       9.327498      0.207244     -0.803897
  O       8.527712      0.366210     -0.296505
  H       8.334740     -0.503870      0.096215
  H       9.482237     -2.246891     -0.881158
  O       9.827083     -1.999417     -1.755540
  H       9.046434     -1.614998     -2.215036
  H       9.851993     -3.341326     -3.056761
  O       9.727308     -3.997516     -3.774781
  H       9.349353     -3.492849     -4.508947
  S      13.216971     -2.032815     -2.926658
  H      12.317709     -2.966988     -3.295429
  H      12.247966     -1.274846     -2.377873
18
Coordinates from ORCA-job neb_40_158_CI_MEP.QMRegion E -1774.356874484233
  H       7.859909     -1.666870     -4.061308
  O       7.637556     -1.329763     -3.161545
  H       7.113523     -0.501300     -3.320314
  H       8.693557     -5.161369     -2.924256
  O       8.013202     -5.543779     -2.338787
  H       7.974751     -6.505711     -2.417112
  H       9.361989      0.296615     -0.808239
  O       8.577963      0.476591     -0.281112
  H       8.357960     -0.389689      0.098123
  H       9.486730     -2.140538     -0.855562
  O       9.861967     -1.872210     -1.712733
  H       9.088063     -1.508420     -2.199380
  H       9.848476     -3.237180     -3.026126
  O       9.709924     -3.890491     -3.744411
  H       9.328152     -3.384345     -4.476725
  S      13.143844     -3.061258     -3.188779
  H      12.094405     -3.651640     -3.799227
  H      12.317230     -2.313014     -2.431239
