45
Coordinates from ORCA-job neb_316_317_CI_MEP.QMRegion E -2416.367576859724
  H      -4.611675      0.547629      2.141331
  O      -4.938278     -0.387909      2.179127
  H      -4.429256     -0.862071      1.507839
  H      -4.870663      2.544015      1.358102
  O      -4.199752      2.153833      1.954916
  H      -3.376558      2.144823      1.405280
  H      -5.801471      0.801608     -1.634514
  O      -4.880378      1.097220     -1.516341
  H      -4.930575      1.982985     -1.102895
  H      -3.135992      5.044934      1.156217
  O      -3.937663      5.384496      0.697390
  H      -4.352469      5.961110      1.392173
  H      -4.392184      2.742982      3.605586
  O      -4.415878      2.886734      4.574871
  H      -4.451095      1.978325      4.949596
  H      -4.970868      4.204827      0.037116
  O      -5.386031      3.345610     -0.204861
  H      -6.327311      3.466873     -0.422592
  H      -4.359176     -2.674102      4.315660
  O      -5.244098     -2.328196      4.068593
  H      -5.056346     -1.519575      3.544294
  H      -5.876610     -3.246836      1.339406
  O      -6.335236     -3.814602      2.005922
  H      -6.075013     -3.402200      2.854996
  H      -7.693072      3.721766     -2.074854
  O      -7.982075      3.121347     -1.349312
  H      -7.807299      2.221802     -1.710873
  H      -6.399017     -0.170808      1.096238
  O      -6.780414     -0.211662      0.198442
  H      -7.690831     -0.509760      0.274750
  H      -5.338573     -3.191685     -0.583994
  O      -5.138591     -2.448380      0.023508
  H      -5.717463     -1.707961     -0.242944
  H      -9.047096     -1.823175     -2.329923
  O      -8.530678     -1.623459     -1.518300
  H      -8.611432     -2.390899     -0.902668
  H      -7.960595     -3.786086      0.896825
  O      -8.629452     -3.711603      0.191557
  H      -8.459613     -4.471010     -0.402245
  H      -5.696262      3.783726      5.369743
  O      -6.408873      4.141899      5.944897
  H      -6.152825      5.051421      6.123303
  S      -7.707995      2.580516      2.511863
  H      -8.103812      2.910881      1.266680
  H      -7.727000      3.855128      2.953556
45
Coordinates from ORCA-job neb_316_317_CI_MEP.QMRegion E -2416.365357849722
  H      -4.583214      0.627125      2.110078
  O      -4.874660     -0.317472      2.135636
  H      -4.364083     -0.757743      1.443368
  H      -4.844519      2.631895      1.300593
  O      -4.194606      2.246671      1.928146
  H      -3.360689      2.204817      1.396372
  H      -5.791725      0.829870     -1.620080
  O      -4.875467      1.144217     -1.509801
  H      -4.947282      2.030163     -1.104758
  H      -3.146473      5.046830      1.140727
  O      -3.947566      5.393271      0.687891
  H      -4.351295      5.974380      1.385806
  H      -4.353195      2.755293      3.578670
  O      -4.404080      2.884011      4.550363
  H      -4.438314      1.974333      4.921635
  H      -5.071225      4.245663      0.037614
  O      -5.484740      3.372809     -0.143231
  H      -6.424908      3.469839     -0.393953
  H      -4.324925     -2.621639      4.294937
  O      -5.203434     -2.262457      4.045032
  H      -5.002509     -1.459997      3.517788
  H      -5.819953     -3.221016      1.324230
  O      -6.289088     -3.773174      1.998862
  H      -6.025482     -3.348441      2.841032
  H      -7.708521      3.728406     -2.083106
  O      -7.996982      3.127936     -1.357233
  H      -7.816356      2.229388     -1.718181
  H      -6.400819     -0.096144      1.054560
  O      -6.728861     -0.229175      0.146533
  H      -7.653799     -0.483741      0.199401
  H      -5.342819     -3.165552     -0.609892
  O      -5.117909     -2.436672      0.003660
  H      -5.702651     -1.684228     -0.222012
  H      -9.057034     -1.807270     -2.323186
  O      -8.540361     -1.606309     -1.512222
  H      -8.602414     -2.381533     -0.902422
  H      -7.899569     -3.735957      0.898822
  O      -8.583906     -3.675848      0.205577
  H      -8.429487     -4.446071     -0.376797
  H      -5.637931      3.819948      5.375152
  O      -6.343644      4.178706      5.956846
  H      -6.076722      5.082858      6.146991
  S      -8.296059      1.649035      2.840915
  H      -8.876134      2.065969      1.697530
  H      -7.947059      2.899510      3.209047
45
Coordinates from ORCA-job neb_316_317_CI_MEP.QMRegion E -2416.364035035032
  H      -4.558716      0.638633      2.111884
  O      -4.858752     -0.302971      2.145598
  H      -4.357375     -0.752392      1.452369
  H      -4.828852      2.647554      1.300835
  O      -4.183261      2.260022      1.932404
  H      -3.349089      2.211811      1.401078
  H      -5.782566      0.832413     -1.604727
  O      -4.867138      1.152215     -1.506577
  H      -4.939162      2.037437     -1.100725
  H      -3.144538      5.048455      1.142796
  O      -3.945558      5.394899      0.689786
  H      -4.349819      5.975493      1.388172
  H      -4.345036      2.760419      3.584748
  O      -4.404355      2.886740      4.556044
  H      -4.435595      1.976896      4.927074
  H      -5.072874      4.250226      0.046575
  O      -5.485310      3.375547     -0.129372
  H      -6.424975      3.469836     -0.385062
  H      -4.320045     -2.620386      4.299616
  O      -5.197318     -2.258263      4.048876
  H      -4.993225     -1.454799      3.525399
  H      -5.812785     -3.221490      1.332806
  O      -6.282814     -3.773298      2.007396
  H      -6.020691     -3.347517      2.849271
  H      -7.704391      3.727430     -2.081043
  O      -7.992551      3.127839     -1.354642
  H      -7.812314      2.229012     -1.715017
  H      -6.378886     -0.093374      1.057312
  O      -6.702166     -0.228234      0.148288
  H      -7.638021     -0.435827      0.209160
  H      -5.340248     -3.168556     -0.601691
  O      -5.113871     -2.439847      0.011680
  H      -5.701154     -1.687860     -0.211172
  H      -9.055253     -1.808751     -2.317417
  O      -8.538423     -1.600620     -1.508762
  H      -8.594513     -2.372090     -0.893671
  H      -7.888157     -3.729194      0.906830
  O      -8.571434     -3.668816      0.212435
  H      -8.419912     -4.440487     -0.368209
  H      -5.635773      3.840737      5.386399
  O      -6.333594      4.197768      5.976996
  H      -6.056132      5.095709      6.180907
  S      -8.705461      1.087000      2.865201
  H      -9.422962      1.571635      1.831908
  H      -8.179126      2.296788      3.152205
45
Coordinates from ORCA-job neb_316_317_CI_MEP.QMRegion E -2416.363275016130
  H      -4.580255      0.565186      2.123374
  O      -4.895313     -0.371485      2.162987
  H      -4.396155     -0.837422      1.478961
  H      -4.843992      2.580964      1.314271
  O      -4.195293      2.185326      1.937524
  H      -3.360572      2.159657      1.405640
  H      -5.787114      0.823240     -1.613588
  O      -4.872501      1.142743     -1.507988
  H      -4.947768      2.023329     -1.092071
  H      -3.146808      5.042607      1.142097
  O      -3.949380      5.386152      0.689593
  H      -4.352672      5.967950      1.387450
  H      -4.347884      2.738095      3.580413
  O      -4.401865      2.879735      4.549990
  H      -4.432972      1.973527      4.929844
  H      -5.075135      4.220253      0.073962
  O      -5.490927      3.347360     -0.103734
  H      -6.429407      3.448826     -0.360273
  H      -4.339129     -2.654104      4.311970
  O      -5.220740     -2.301280      4.062991
  H      -5.024433     -1.498601      3.533245
  H      -5.841268     -3.236191      1.340555
  O      -6.309925     -3.796518      2.007923
  H      -6.049608     -3.381187      2.855686
  H      -7.701716      3.726665     -2.075905
  O      -7.994066      3.125979     -1.352256
  H      -7.813359      2.228123     -1.713602
  H      -6.406664     -0.149450      1.064027
  O      -6.713335     -0.251959      0.145102
  H      -7.638896     -0.507744      0.178498
  H      -5.331438     -3.188754     -0.587588
  O      -5.113613     -2.454457      0.023467
  H      -5.692624     -1.702119     -0.218601
  H      -9.057323     -1.813061     -2.317554
  O      -8.541366     -1.615198     -1.505469
  H      -8.606431     -2.393113     -0.898882
  H      -7.927190     -3.754448      0.907285
  O      -8.604006     -3.691513      0.207229
  H      -8.442250     -4.459398     -0.376402
  H      -5.651448      3.815664      5.372362
  O      -6.342173      4.177619      5.968888
  H      -6.061381      5.077317      6.159937
  S      -8.975005      0.744757      2.781587
  H      -9.501229      1.352140      1.699448
  H      -8.809279      1.915058      3.431611
45
Coordinates from ORCA-job neb_316_317_CI_MEP.QMRegion E -2416.363106002817
  H      -4.641404      0.466876      2.122502
  O      -4.969449     -0.465940      2.164916
  H      -4.468850     -0.945675      1.491040
  H      -4.888983      2.488384      1.315737
  O      -4.235852      2.083484      1.927972
  H      -3.398280      2.090461      1.401673
  H      -5.816586      0.793332     -1.649160
  O      -4.903230      1.107742     -1.512839
  H      -4.990549      1.982129     -1.085578
  H      -3.170306      5.022848      1.134478
  O      -3.973127      5.365853      0.683398
  H      -4.371334      5.950619      1.381191
  H      -4.373512      2.705197      3.570692
  O      -4.410390      2.866646      4.537015
  H      -4.444421      1.965177      4.928131
  H      -5.118772      4.170425      0.084804
  O      -5.534111      3.298038     -0.088528
  H      -6.471845      3.403552     -0.347854
  H      -4.378597     -2.704331      4.318203
  O      -5.267229     -2.367374      4.073587
  H      -5.085597     -1.567331      3.532522
  H      -5.914430     -3.266173      1.339588
  O      -6.370461     -3.842210      1.999558
  H      -6.112733     -3.437884      2.853206
  H      -7.715921      3.717082     -2.080724
  O      -8.016875      3.116291     -1.361000
  H      -7.837097      2.217973     -1.721055
  H      -6.460053     -0.246297      1.076204
  O      -6.802236     -0.278339      0.163364
  H      -7.694401     -0.635835      0.190916
  H      -5.337169     -3.216175     -0.578561
  O      -5.142752     -2.468800      0.026408
  H      -5.719081     -1.728231     -0.248899
  H      -9.068915     -1.828169     -2.327616
  O      -8.553938     -1.649551     -1.510086
  H      -8.647316     -2.433439     -0.916131
  H      -8.026955     -3.809255      0.903816
  O      -8.690986     -3.744923      0.193158
  H      -8.500187     -4.501464     -0.398063
  H      -5.702008      3.769676      5.349352
  O      -6.381572      4.137543      5.954929
  H      -6.101631      5.042313      6.120674
  S      -8.834106      0.828746      2.694407
  H      -9.327006      1.468485      1.616134
  H      -9.507188      1.619313      3.557120
45
Coordinates from ORCA-job neb_316_317_CI_MEP.QMRegion E -2416.363591833555
  H      -4.600326      0.494373      2.127112
  O      -4.931174     -0.437488      2.168777
  H      -4.436559     -0.918378      1.491236
  H      -4.869975      2.512885      1.321764
  O      -4.216333      2.112273      1.936204
  H      -3.381052      2.111009      1.405970
  H      -5.800720      0.792917     -1.628263
  O      -4.888824      1.117134     -1.509819
  H      -4.975482      1.991889     -1.083899
  H      -3.163292      5.027078      1.136992
  O      -3.966284      5.369650      0.685551
  H      -4.365937      5.953441      1.383716
  H      -4.362884      2.717283      3.578542
  O      -4.405014      2.873736      4.545369
  H      -4.438876      1.971598      4.933619
  H      -5.106408      4.179372      0.089902
  O      -5.522296      3.306593     -0.083755
  H      -6.458817      3.412414     -0.346644
  H      -4.364301     -2.692033      4.320718
  O      -5.249816     -2.348073      4.072796
  H      -5.059312     -1.549216      3.533510
  H      -5.890381     -3.265085      1.345861
  O      -6.350744     -3.834820      2.010864
  H      -6.087320     -3.427085      2.860972
  H      -7.710720      3.716100     -2.075842
  O      -8.008900      3.112967     -1.357242
  H      -7.827525      2.216109     -1.721176
  H      -6.402026     -0.198085      1.058323
  O      -6.747387     -0.288316      0.151410
  H      -7.676350     -0.522001      0.234241
  H      -5.332624     -3.215737     -0.571615
  O      -5.135287     -2.474150      0.038789
  H      -5.727938     -1.736286     -0.215351
  H      -9.064687     -1.829069     -2.324548
  O      -8.551026     -1.633470     -1.510674
  H      -8.630225     -2.408934     -0.905326
  H      -7.990683     -3.797382      0.908219
  O      -8.662998     -3.732526      0.205176
  H      -8.481561     -4.489403     -0.388207
  H      -5.688771      3.794304      5.363855
  O      -6.360803      4.162724      5.976125
  H      -6.067754      5.060366      6.156954
  S      -8.649166      1.155447      2.577876
  H      -9.551265      1.520385      1.645518
  H      -9.596857      0.645978      3.396985
45
Coordinates from ORCA-job neb_316_317_CI_MEP.QMRegion E -2416.363127451818
  H      -4.567655      0.514527      2.122026
  O      -4.897410     -0.418265      2.159777
  H      -4.400122     -0.897244      1.482790
  H      -4.854842      2.528206      1.320784
  O      -4.200389      2.131748      1.937621
  H      -3.366244      2.125732      1.404624
  H      -5.782904      0.793324     -1.608229
  O      -4.872013      1.125364     -1.509061
  H      -4.956783      2.001640     -1.085720
  H      -3.155961      5.029840      1.137757
  O      -3.959159      5.372101      0.686199
  H      -4.360098      5.954878      1.384440
  H      -4.350115      2.719197      3.576737
  O      -4.399421      2.872926      4.544101
  H      -4.432538      1.970699      4.931762
  H      -5.094100      4.184586      0.085762
  O      -5.506901      3.310124     -0.087141
  H      -6.444488      3.411018     -0.349839
  H      -4.349996     -2.680815      4.320540
  O      -5.231880     -2.329416      4.068453
  H      -5.031722     -1.533400      3.528813
  H      -5.864250     -3.260858      1.346866
  O      -6.329250     -3.823104      2.016967
  H      -6.058038     -3.413544      2.863920
  H      -7.701915      3.714699     -2.075402
  O      -7.997233      3.112680     -1.354993
  H      -7.817573      2.215402     -1.718784
  H      -6.342345     -0.156844      1.024759
  O      -6.693162     -0.289971      0.125272
  H      -7.634163     -0.456031      0.227431
  H      -5.323658     -3.220302     -0.570633
  O      -5.122391     -2.481417      0.041777
  H      -5.716091     -1.740831     -0.206054
  H      -9.059958     -1.830366     -2.320489
  O      -8.547457     -1.626903     -1.507864
  H      -8.614384     -2.400247     -0.899046
  H      -7.950583     -3.791192      0.910667
  O      -8.631435     -3.724548      0.215662
  H      -8.461715     -4.482696     -0.379391
  H      -5.668194      3.801772      5.368948
  O      -6.340718      4.171515      5.979794
  H      -6.042267      5.065840      6.168235
  S      -8.758438      0.933643      2.608031
  H      -9.837377      0.984543      1.801477
  H      -9.232779     -0.135774      3.284191
45
Coordinates from ORCA-job neb_316_317_CI_MEP.QMRegion E -2416.363793674104
  H      -4.535933      0.522691      2.110420
  O      -4.862005     -0.412347      2.141965
  H      -4.358749     -0.888441      1.467225
  H      -4.845068      2.534234      1.318663
  O      -4.189962      2.139999      1.936831
  H      -3.356112      2.134706      1.402596
  H      -5.772276      0.794709     -1.597576
  O      -4.861298      1.129467     -1.509694
  H      -4.943689      2.006680     -1.087507
  H      -3.150600      5.033151      1.138241
  O      -3.954257      5.374300      0.686511
  H      -4.356522      5.956375      1.384549
  H      -4.342302      2.718837      3.574234
  O      -4.395466      2.871697      4.541693
  H      -4.429155      1.969648      4.929721
  H      -5.084188      4.186635      0.082312
  O      -5.494482      3.310973     -0.090405
  H      -6.432618      3.408469     -0.354276
  H      -4.339346     -2.672873      4.319798
  O      -5.217872     -2.315529      4.063280
  H      -5.009013     -1.523070      3.522483
  H      -5.847559     -3.251699      1.343885
  O      -6.311290     -3.808918      2.019820
  H      -6.030304     -3.398335      2.863635
  H      -7.694593      3.713867     -2.075616
  O      -7.987091      3.112911     -1.353358
  H      -7.810450      2.214864     -1.717114
  H      -6.262837     -0.142945      1.002926
  O      -6.657891     -0.268698      0.119935
  H      -7.597730     -0.401983      0.275637
  H      -5.320813     -3.220250     -0.576859
  O      -5.118609     -2.480062      0.033798
  H      -5.710856     -1.739001     -0.216078
  H      -9.054132     -1.833122     -2.318899
  O      -8.541963     -1.622217     -1.508130
  H      -8.601939     -2.390965     -0.894447
  H      -7.919561     -3.789870      0.913583
  O      -8.608539     -3.719539      0.226891
  H      -8.449405     -4.477190     -0.371540
  H      -5.655419      3.804414      5.369522
  O      -6.326563      4.177710      5.979815
  H      -6.022036      5.069526      6.170480
  S      -8.834350      0.429027      2.669063
  H      -9.952080      0.454179      1.915764
  H      -9.024688     -0.859696      3.027867
45
Coordinates from ORCA-job neb_316_317_CI_MEP.QMRegion E -2416.364923446555
  H      -4.516154      0.543424      2.106077
  O      -4.837284     -0.394195      2.132885
  H      -4.330671     -0.865100      1.457032
  H      -4.840494      2.550348      1.317929
  O      -4.184531      2.159268      1.938048
  H      -3.351211      2.151207      1.402919
  H      -5.773004      0.799183     -1.596626
  O      -4.860673      1.131334     -1.509377
  H      -4.941364      2.009122     -1.087936
  H      -3.149729      5.036748      1.138801
  O      -3.953226      5.377600      0.686764
  H      -4.356202      5.959502      1.384609
  H      -4.341591      2.727861      3.577783
  O      -4.395711      2.876165      4.545865
  H      -4.429342      1.972978      4.931014
  H      -5.085037      4.192314      0.078598
  O      -5.492687      3.315138     -0.091537
  H      -6.431898      3.408869     -0.354879
  H      -4.330090     -2.662752      4.317781
  O      -5.206055     -2.300819      4.058025
  H      -4.991348     -1.508807      3.519576
  H      -5.841042     -3.240061      1.341731
  O      -6.301114     -3.792988      2.024459
  H      -6.007331     -3.381689      2.864292
  H      -7.692323      3.714922     -2.075094
  O      -7.983648      3.115861     -1.350992
  H      -7.809863      2.216600     -1.712741
  H      -6.208404     -0.121734      0.995663
  O      -6.652449     -0.238627      0.133500
  H      -7.581869     -0.364615      0.351769
  H      -5.328993     -3.208010     -0.585028
  O      -5.126071     -2.470021      0.027427
  H      -5.719902     -1.728324     -0.217181
  H      -9.051049     -1.835994     -2.319304
  O      -8.539683     -1.619308     -1.509569
  H      -8.596047     -2.383388     -0.892079
  H      -7.899664     -3.793551      0.914879
  O      -8.598104     -3.719318      0.238388
  H      -8.447323     -4.474458     -0.365471
  H      -5.651403      3.815201      5.374397
  O      -6.324327      4.185875      5.984150
  H      -6.020856      5.077007      6.179724
  S      -8.979853     -0.164644      2.588800
  H     -10.062175     -0.411214      1.824724
  H      -8.739105     -1.479606      2.783460
45
Coordinates from ORCA-job neb_316_317_CI_MEP.QMRegion E -2416.366979580199
  H      -4.521640      0.612664      2.136647
  O      -4.827993     -0.330837      2.149209
  H      -4.315087     -0.777611      1.462376
  H      -4.824476      2.608897      1.331298
  O      -4.172473      2.220586      1.958336
  H      -3.341160      2.191332      1.422301
  H      -5.787214      0.817376     -1.607440
  O      -4.869586      1.132241     -1.505556
  H      -4.939005      2.011036     -1.083764
  H      -3.141281      5.046588      1.146110
  O      -3.943505      5.388083      0.691880
  H      -4.350088      5.968396      1.389408
  H      -4.353237      2.766403      3.608772
  O      -4.406795      2.899008      4.578436
  H      -4.441870      1.990445      4.950157
  H      -5.063624      4.212902      0.073816
  O      -5.472279      3.335055     -0.093946
  H      -6.413378      3.428587     -0.350821
  H      -4.323920     -2.644165      4.311088
  O      -5.198115     -2.278920      4.049671
  H      -4.981911     -1.479230      3.524023
  H      -5.851798     -3.220918      1.336121
  O      -6.308218     -3.767245      2.028039
  H      -5.993347     -3.357198      2.861879
  H      -7.683168      3.725561     -2.069831
  O      -7.972110      3.130426     -1.341559
  H      -7.803702      2.229428     -1.699056
  H      -6.212422     -0.068054      1.027326
  O      -6.696161     -0.187085      0.187096
  H      -7.607290     -0.361471      0.456956
  H      -5.359494     -3.157099     -0.602641
  O      -5.151169     -2.437511      0.026824
  H      -5.746203     -1.687642     -0.190654
  H      -9.041678     -1.824773     -2.339809
  O      -8.534160     -1.611596     -1.525625
  H      -8.594493     -2.377325     -0.914443
  H      -7.916198     -3.812464      0.878688
  O      -8.616607     -3.733896      0.206642
  H      -8.465288     -4.484359     -0.405122
  H      -5.667228      3.858776      5.400432
  O      -6.347812      4.216099      6.008587
  H      -6.051031      5.104495      6.225953
  S      -9.118793     -1.029575      2.371422
  H      -9.800283     -1.783392      1.487338
  H      -8.211016     -2.012889      2.566312
