33
Coordinates from ORCA-job neb_178_349_CI_MEP.QMRegion E -2131.024885028754
  H      -3.458695      6.387968     -0.452764
  O      -3.311891      7.042196     -1.195997
  H      -3.087190      7.895078     -0.766941
  H      -3.811579      5.827419     -2.634995
  O      -4.240738      5.011968     -2.933683
  H      -4.072878      4.942887     -3.897967
  H      -3.171782      4.924455      1.156593
  O      -3.942002      5.325787      0.699647
  H      -4.354098      5.832789      1.445009
  H      -1.810010      9.689597     -0.713590
  O      -2.580801      9.431887     -0.147275
  H      -3.299124     10.055690     -0.306259
  H      -5.961783      4.652558     -2.914882
  O      -6.867757      4.528943     -3.271508
  H      -6.743981      3.800382     -3.924180
  H      -2.280449      8.713210      1.408469
  O      -2.196133      8.082147      2.148353
  H      -1.401226      7.550173      1.946389
  H      -4.446081      6.449796      3.619459
  O      -4.593525      6.868007      2.747768
  H      -3.750393      7.345534      2.591624
  H      -5.866775      7.366092     -4.253958
  O      -6.372587      6.752999     -4.823366
  H      -6.618030      5.998028     -4.237213
  H      -4.367254      9.178171     -3.115232
  O      -4.963559      8.422470     -2.997737
  H      -4.507475      7.885065     -2.323068
  H      -9.203719      7.849683     -4.103270
  O      -9.063431      7.372499     -4.926240
  H      -8.090735      7.241539     -4.967962
  S      -5.944852      9.526642      0.606187
  H      -6.038638      8.646646     -0.413495
  H      -5.701882      8.555078      1.516556
33
Coordinates from ORCA-job neb_178_349_CI_MEP.QMRegion E -2131.023676512798
  H      -3.448467      6.380972     -0.424667
  O      -3.283652      7.036567     -1.167045
  H      -3.070343      7.889296     -0.734791
  H      -3.804123      5.820632     -2.624784
  O      -4.243165      5.012733     -2.927500
  H      -4.076732      4.945706     -3.892062
  H      -3.167230      4.913043      1.152900
  O      -3.938034      5.318157      0.700451
  H      -4.346954      5.819881      1.455256
  H      -1.802748      9.689018     -0.710600
  O      -2.593435      9.468560     -0.154852
  H      -3.284149     10.102491     -0.377250
  H      -5.968460      4.654140     -2.905458
  O      -6.872528      4.536171     -3.267650
  H      -6.749052      3.808527     -3.920841
  H      -2.274995      8.732022      1.421291
  O      -2.197654      8.085656      2.145456
  H      -1.402496      7.554890      1.941047
  H      -4.439069      6.409355      3.617438
  O      -4.613719      6.826357      2.750032
  H      -3.799131      7.346406      2.596974
  H      -5.824651      7.360494     -4.242140
  O      -6.358116      6.768431     -4.807377
  H      -6.610014      6.013054     -4.225124
  H      -4.307325      9.164451     -3.107912
  O      -4.887771      8.394766     -2.993893
  H      -4.423461      7.866605     -2.314686
  H      -9.194234      7.849787     -4.035177
  O      -9.059039      7.394201     -4.871209
  H      -8.086866      7.272157     -4.926631
  S      -6.356184      9.498676      0.130199
  H      -6.164071      8.799506     -1.011705
  H      -6.216506      8.410042      0.917548
33
Coordinates from ORCA-job neb_178_349_CI_MEP.QMRegion E -2131.022950804774
  H      -3.457076      6.412413     -0.446509
  O      -3.298183      7.069806     -1.188922
  H      -3.094287      7.925504     -0.759629
  H      -3.805048      5.828376     -2.645921
  O      -4.244704      5.017061     -2.936466
  H      -4.083715      4.942781     -3.902075
  H      -3.162821      4.931918      1.131869
  O      -3.932513      5.336912      0.678122
  H      -4.341921      5.837131      1.434311
  H      -1.801582      9.702195     -0.724161
  O      -2.613306      9.518726     -0.183941
  H      -3.264233     10.178597     -0.444187
  H      -5.979527      4.679183     -2.919074
  O      -6.884068      4.555662     -3.277758
  H      -6.758430      3.826945     -3.928613
  H      -2.268049      8.769456      1.409171
  O      -2.192035      8.113387      2.122999
  H      -1.398135      7.581404      1.917167
  H      -4.428214      6.412488      3.604946
  O      -4.610814      6.829543      2.739606
  H      -3.808847      7.366657      2.587085
  H      -5.828645      7.380489     -4.289186
  O      -6.361509      6.782035     -4.847266
  H      -6.622320      6.038913     -4.254190
  H      -4.293064      9.185274     -3.148251
  O      -4.877289      8.416236     -3.045112
  H      -4.420730      7.883058     -2.364277
  H      -9.200544      7.876021     -4.069252
  O      -9.074854      7.405864     -4.898893
  H      -8.103625      7.293336     -4.968850
  S      -6.759395      9.463281     -0.200280
  H      -6.241473      8.888448     -1.312248
  H      -6.545926      8.369171      0.561492
33
Coordinates from ORCA-job neb_178_349_CI_MEP.QMRegion E -2131.022582170950
  H      -3.460343      6.419227     -0.452682
  O      -3.302023      7.078372     -1.194401
  H      -3.100130      7.933676     -0.765204
  H      -3.807771      5.828547     -2.655484
  O      -4.247297      5.015687     -2.941007
  H      -4.089665      4.939546     -3.907302
  H      -3.161467      4.935613      1.122695
  O      -3.930760      5.341496      0.669352
  H      -4.340188      5.839762      1.427314
  H      -1.795325      9.703296     -0.729230
  O      -2.616827      9.539592     -0.196274
  H      -3.244632     10.213746     -0.474883
  H      -5.986677      4.684079     -2.925342
  O      -6.890857      4.559191     -3.283935
  H      -6.764031      3.830009     -3.933869
  H      -2.264429      8.782654      1.404768
  O      -2.190108      8.122288      2.114022
  H      -1.396469      7.590011      1.907996
  H      -4.423264      6.408186      3.601455
  O      -4.607407      6.824225      2.736022
  H      -3.809928      7.367121      2.584188
  H      -5.834362      7.383293     -4.306040
  O      -6.365428      6.782454     -4.861957
  H      -6.630445      6.043691     -4.265375
  H      -4.268703      9.190714     -3.164372
  O      -4.860194      8.426417     -3.066072
  H      -4.415972      7.890140     -2.379001
  H      -9.198581      7.868942     -4.050583
  O      -9.085752      7.414160     -4.891278
  H      -8.116621      7.302403     -4.976171
  S      -7.121705      9.359904     -0.542585
  H      -6.304266      8.960308     -1.549001
  H      -6.785541      8.315022      0.243238
33
Coordinates from ORCA-job neb_178_349_CI_MEP.QMRegion E -2131.022626076172
  H      -3.459105      6.406692     -0.462005
  O      -3.301594      7.069650     -1.201072
  H      -3.100837      7.922627     -0.768346
  H      -3.800213      5.818389     -2.671837
  O      -4.245040      5.006497     -2.950516
  H      -4.091802      4.926260     -3.917776
  H      -3.158211      4.922760      1.112260
  O      -3.925841      5.330702      0.658599
  H      -4.336567      5.825887      1.418312
  H      -1.784289      9.687708     -0.729848
  O      -2.608879      9.530322     -0.198182
  H      -3.223728     10.216009     -0.475935
  H      -5.985839      4.679372     -2.930934
  O      -6.890460      4.555218     -3.288167
  H      -6.764338      3.824922     -3.937269
  H      -2.261920      8.769369      1.402276
  O      -2.190028      8.111647      2.113861
  H      -1.396657      7.577899      1.909156
  H      -4.419828      6.389597      3.596010
  O      -4.603342      6.802034      2.728747
  H      -3.807504      7.347257      2.577346
  H      -5.825273      7.373888     -4.330979
  O      -6.359268      6.771252     -4.881250
  H      -6.627835      6.038850     -4.278370
  H      -4.235178      9.178341     -3.188559
  O      -4.826781      8.412260     -3.101808
  H      -4.399898      7.879577     -2.401390
  H      -9.160464      7.845910     -4.041986
  O      -9.079879      7.406708     -4.894994
  H      -8.115257      7.285646     -5.006951
  S      -7.439113      9.199629     -0.934400
  H      -6.400844      8.934328     -1.767413
  H      -7.094736      8.212981     -0.079867
33
Coordinates from ORCA-job neb_178_349_CI_MEP.QMRegion E -2131.023721676881
  H      -3.454997      6.401423     -0.478864
  O      -3.302288      7.069474     -1.214555
  H      -3.103315      7.920700     -0.778258
  H      -3.790505      5.813743     -2.693163
  O      -4.241289      5.002040     -2.961529
  H      -4.095220      4.916131     -3.930062
  H      -3.149611      4.915877      1.095309
  O      -3.915621      5.325168      0.640770
  H      -4.325628      5.819370      1.401698
  H      -1.776515      9.678862     -0.735658
  O      -2.606490      9.530157     -0.208622
  H      -3.209728     10.221959     -0.495831
  H      -5.985791      4.683070     -2.938387
  O      -6.891367      4.557470     -3.292235
  H      -6.765887      3.826611     -3.940747
  H      -2.254738      8.767888      1.394079
  O      -2.183929      8.111736      2.106913
  H      -1.391169      7.576218      1.903452
  H      -4.405970      6.376697      3.584547
  O      -4.589954      6.786327      2.716130
  H      -3.797470      7.336168      2.564259
  H      -5.819624      7.372809     -4.361212
  O      -6.352056      6.766006     -4.907340
  H      -6.629005      6.043736     -4.296600
  H      -4.207441      9.174660     -3.212182
  O      -4.801032      8.408696     -3.137400
  H      -4.391492      7.876989     -2.425919
  H      -9.109930      7.826905     -4.019441
  O      -9.075050      7.408320     -4.887019
  H      -8.117784      7.280612     -5.038405
  S      -7.681070      9.044393     -1.392791
  H      -6.480734      8.927867     -2.017928
  H      -7.363308      8.108978     -0.472791
33
Coordinates from ORCA-job neb_178_349_CI_MEP.QMRegion E -2131.025267749159
  H      -3.448118      6.413337     -0.436647
  O      -3.282770      7.080763     -1.170434
  H      -3.084092      7.929320     -0.731669
  H      -3.763511      5.837264     -2.675224
  O      -4.218687      5.030028     -2.950028
  H      -4.068272      4.943840     -3.917365
  H      -3.162091      4.918842      1.122376
  O      -3.928968      5.327151      0.667873
  H      -4.345903      5.815736      1.428822
  H      -1.751179      9.690056     -0.695664
  O      -2.568138      9.545954     -0.148329
  H      -3.167570     10.253297     -0.402572
  H      -5.961016      4.699709     -2.930832
  O      -6.868445      4.575568     -3.279550
  H      -6.747794      3.849489     -3.933746
  H      -2.259372      8.755656      1.434417
  O      -2.200821      8.091297      2.141196
  H      -1.406596      7.557746      1.939826
  H      -4.439137      6.364723      3.609566
  O      -4.622593      6.779753      2.743523
  H      -3.827650      7.327450      2.600076
  H      -5.741931      7.393599     -4.376487
  O      -6.290074      6.795564     -4.916275
  H      -6.589025      6.092887     -4.296451
  H      -4.170111      9.185876     -3.176450
  O      -4.765801      8.418961     -3.115961
  H      -4.395882      7.906558     -2.369530
  H      -8.996814      7.840861     -4.104618
  O      -9.047704      7.383286     -4.957235
  H      -8.106751      7.252392     -5.172129
  S      -7.989321      8.958085     -2.066510
  H      -6.697387      8.902590     -2.483656
  H      -7.842813      7.857660     -1.298987
