27
Coordinates from ORCA-job neb_8_83_CI_MEP.QMRegion E -1988.357713689185
  H       2.228241      5.824298     -1.200574
  O       3.168746      5.530671     -1.071065
  H       3.327760      4.936446     -1.826000
  H       4.279686      5.585036      0.398341
  O       4.655912      5.664226      1.291297
  H       4.011086      6.269338      1.714544
  H       3.769557      7.189309     -1.390817
  O       3.869605      8.149439     -1.560584
  H       4.000225      8.164578     -2.518299
  H       6.062849      1.820672     -0.466180
  O       6.656159      2.043636     -1.200555
  H       7.458382      1.517809     -1.002344
  H       4.561406      4.025626      1.756451
  O       4.365383      3.099940      2.039926
  H       5.084219      2.532320      1.742897
  H       3.930726      5.989070     -4.023013
  O       4.384836      6.832189     -4.191961
  H       5.316744      6.589291     -4.175351
  H       4.700466      8.829965      0.001679
  O       4.953023      8.963753      0.934353
  H       5.716714      8.384014      1.027464
  H       5.290833      4.170694     -3.168161
  O       6.248443      4.158454     -3.054138
  H       6.404701      3.499812     -2.348336
  S       7.668864      6.511016     -0.390253
  H       6.841692      5.958339      0.523102
  H       7.002551      5.933637     -1.414359
27
Coordinates from ORCA-job neb_8_83_CI_MEP.QMRegion E -1988.353607765521
  H       2.175617      5.736022     -1.213890
  O       3.105837      5.418523     -1.061364
  H       3.280931      4.828000     -1.815099
  H       4.271597      5.487464      0.390679
  O       4.623217      5.591138      1.289058
  H       3.959360      6.192343      1.686801
  H       3.694501      7.037453     -1.348050
  O       3.846316      7.987396     -1.546839
  H       3.961019      7.965334     -2.508372
  H       6.046824      1.793684     -0.501076
  O       6.652839      2.019696     -1.223123
  H       7.446239      1.480153     -1.023852
  H       4.525752      3.944706      1.752127
  O       4.319910      3.021045      2.035149
  H       5.027798      2.442190      1.731172
  H       3.899723      5.951707     -4.023171
  O       4.374567      6.785687     -4.186380
  H       5.297958      6.522935     -4.104404
  H       4.606503      8.730424      0.011928
  O       4.840892      8.986044      0.923405
  H       5.663614      8.507205      1.075639
  H       5.266602      4.138512     -3.229074
  O       6.222610      4.142948     -3.105414
  H       6.379895      3.500435     -2.387791
  S       8.097989      7.978563     -0.064611
  H       7.764152      6.799508      0.497208
  H       7.550620      7.627284     -1.247176
27
Coordinates from ORCA-job neb_8_83_CI_MEP.QMRegion E -1988.351153784368
  H       2.189515      5.766170     -1.209742
  O       3.124310      5.459738     -1.064723
  H       3.296791      4.872423     -1.822082
  H       4.293726      5.544575      0.392127
  O       4.635928      5.651586      1.293935
  H       3.944713      6.223663      1.691323
  H       3.713162      7.091394     -1.337509
  O       3.865694      8.045529     -1.515823
  H       3.981342      8.042457     -2.477059
  H       6.053958      1.818575     -0.500713
  O       6.658933      2.042693     -1.224119
  H       7.452864      1.506227     -1.021250
  H       4.546903      3.986261      1.744961
  O       4.340987      3.063022      2.027338
  H       5.049583      2.484734      1.724152
  H       3.914027      5.991314     -4.009319
  O       4.397699      6.822676     -4.153611
  H       5.317629      6.554166     -4.051366
  H       4.645999      8.769463      0.066952
  O       4.881831      8.953160      0.995277
  H       5.594984      8.329255      1.162876
  H       5.272023      4.166814     -3.234458
  O       6.228985      4.175498     -3.116736
  H       6.391386      3.546059     -2.389287
  S       8.324616      8.494006     -0.150245
  H       7.903319      7.414015      0.539497
  H       7.803626      8.021311     -1.301203
27
Coordinates from ORCA-job neb_8_83_CI_MEP.QMRegion E -1988.350676886750
  H       2.213850      5.797232     -1.205286
  O       3.151601      5.499886     -1.065645
  H       3.321795      4.914522     -1.825795
  H       4.324873      5.591048      0.394455
  O       4.668863      5.703490      1.295675
  H       3.951673      6.235192      1.703830
  H       3.752177      7.151431     -1.318326
  O       3.899851      8.108523     -1.480656
  H       4.021919      8.117116     -2.441115
  H       6.075409      1.840085     -0.499885
  O       6.675772      2.063985     -1.227020
  H       7.470567      1.528675     -1.025459
  H       4.593877      4.016433      1.734941
  O       4.377083      3.097926      2.018483
  H       5.081158      2.512708      1.717353
  H       3.942066      6.043015     -3.977116
  O       4.433676      6.872381     -4.097258
  H       5.351118      6.595918     -3.991870
  H       4.744880      8.760496      0.119770
  O       5.006950      8.835796      1.055968
  H       5.519545      8.031657      1.199142
  H       5.287941      4.193939     -3.242118
  O       6.245773      4.214070     -3.131491
  H       6.419034      3.598838     -2.395060
  S       8.619614      8.797915     -0.277399
  H       8.025987      7.975819      0.611629
  H       7.862492      8.325418     -1.288839
27
Coordinates from ORCA-job neb_8_83_CI_MEP.QMRegion E -1988.351497414728
  H       2.196722      5.810302     -1.196611
  O       3.137526      5.517414     -1.058209
  H       3.307243      4.927959     -1.814435
  H       4.276467      5.605856      0.407799
  O       4.624416      5.721146      1.308221
  H       3.896849      6.236586      1.722350
  H       3.726826      7.178908     -1.310154
  O       3.870582      8.137014     -1.469301
  H       3.967728      8.150574     -2.432641
  H       6.043786      1.851540     -0.490385
  O       6.644596      2.077815     -1.216687
  H       7.443276      1.552126     -1.010268
  H       4.561861      4.029518      1.749212
  O       4.347592      3.109611      2.028726
  H       5.056664      2.528771      1.732059
  H       3.896344      6.072408     -3.961990
  O       4.379779      6.907458     -4.073394
  H       5.297869      6.640125     -3.951432
  H       4.777796      8.752144      0.144195
  O       5.074685      8.723234      1.071915
  H       5.408837      7.818990      1.157545
  H       5.247129      4.221623     -3.245232
  O       6.204889      4.230735     -3.130287
  H       6.367055      3.624687     -2.384590
  S       8.563319      9.250317     -0.169198
  H       7.725501      8.666892      0.711432
  H       7.885285      8.735856     -1.215460
27
Coordinates from ORCA-job neb_8_83_CI_MEP.QMRegion E -1988.353553953423
  H       2.194734      5.810534     -1.191460
  O       3.136804      5.521185     -1.051845
  H       3.308283      4.927428     -1.804105
  H       4.249731      5.598204      0.426356
  O       4.600978      5.712665      1.326048
  H       3.873739      6.225660      1.744115
  H       3.721552      7.186369     -1.296756
  O       3.864499      8.146081     -1.447117
  H       3.951202      8.167963     -2.411665
  H       6.032827      1.851195     -0.480475
  O       6.631302      2.080944     -1.207914
  H       7.433552      1.561925     -1.000418
  H       4.542422      4.025086      1.765933
  O       4.331802      3.102793      2.039642
  H       5.047180      2.528363      1.746154
  H       3.872901      6.095533     -3.939087
  O       4.351495      6.934691     -4.036881
  H       5.269424      6.672959     -3.901026
  H       4.803314      8.703266      0.149401
  O       5.120640      8.646228      1.069945
  H       5.391247      7.717485      1.143786
  H       5.227044      4.235179     -3.245737
  O       6.184355      4.237846     -3.126600
  H       6.339041      3.638203     -2.374497
  S       8.281825      9.860598      0.120924
  H       7.219781      9.351287      0.789241
  H       7.884227      9.276855     -1.028425
27
Coordinates from ORCA-job neb_8_83_CI_MEP.QMRegion E -1988.354613289717
  H       2.186641      5.751110     -1.209845
  O       3.121228      5.444204     -1.061925
  H       3.299788      4.864683     -1.825381
  H       4.291783      5.516201      0.391146
  O       4.637922      5.640211      1.290738
  H       3.919177      6.167135      1.699779
  H       3.699922      7.069474     -1.310991
  O       3.881448      8.023238     -1.465456
  H       4.069324      8.022470     -2.416639
  H       6.085193      1.832957     -0.513843
  O       6.686060      2.057481     -1.239756
  H       7.479738      1.518740     -1.040683
  H       4.598478      3.953255      1.734406
  O       4.368411      3.041626      2.022285
  H       5.061372      2.443209      1.719208
  H       3.982739      6.029199     -3.952144
  O       4.513182      6.838652     -4.036605
  H       5.409344      6.525519     -3.865293
  H       4.821155      8.481363      0.048741
  O       5.143529      8.548252      0.971294
  H       5.509253      7.667367      1.136915
  H       5.286112      4.159568     -3.257508
  O       6.242435      4.203364     -3.141793
  H       6.428873      3.588876     -2.407977
  S       7.112483     11.319096      0.774732
  H       6.364942     10.214928      1.031374
  H       7.560233     10.795471     -0.384701
