21
Coordinates from ORCA-job neb_38_262_CI_MEP.QMRegion E -1845.705308565023
  H      -9.001289     -1.703693     -2.314097
  O      -8.492483     -1.495920     -1.507916
  H      -8.585292     -2.244894     -0.871762
  H      -7.256411      1.700686     -5.241822
  O      -7.881973      0.983148     -5.024340
  H      -8.751671      1.439806     -4.929473
  H      -6.895060     -5.143207     -1.367624
  O      -7.829008     -5.395296     -1.585933
  H      -7.923349     -5.030757     -2.489826
  H      -6.986736     -3.400128     -3.515166
  O      -7.598883     -4.030514     -3.958566
  H      -7.060936     -4.459150     -4.664081
  H     -10.044181      3.234676     -4.951403
  O     -10.147775      2.325046     -4.630441
  H     -10.320402      2.478799     -3.672077
  H      -8.857444     -2.729844     -4.307205
  O      -9.361085     -1.905066     -4.146569
  H      -8.939793     -1.251134     -4.718120
  S     -12.410394     -0.378271     -5.479633
  H     -11.494148     -1.177217     -4.889738
  H     -11.693908      0.736598     -5.218890
21
Coordinates from ORCA-job neb_38_262_CI_MEP.QMRegion E -1845.702582205442
  H      -8.995352     -1.642393     -2.307621
  O      -8.487445     -1.457025     -1.495411
  H      -8.595124     -2.207274     -0.865713
  H      -7.259286      1.765276     -5.218979
  O      -7.893076      1.051040     -5.011554
  H      -8.757614      1.524010     -4.907757
  H      -6.895893     -5.104513     -1.375196
  O      -7.825928     -5.361418     -1.602998
  H      -7.919723     -4.973500     -2.496819
  H      -6.946624     -3.350713     -3.501503
  O      -7.561514     -3.969558     -3.962060
  H      -7.021242     -4.402051     -4.662699
  H     -10.049405      3.296812     -4.935311
  O     -10.157391      2.378675     -4.639092
  H     -10.332837      2.514996     -3.679519
  H      -8.731060     -2.649435     -4.309607
  O      -9.270371     -1.844718     -4.155061
  H      -8.889038     -1.172522     -4.733843
  S     -12.572552     -1.558011     -5.256577
  H     -11.497616     -2.309248     -4.939307
  H     -11.874206     -0.428496     -5.023633
21
Coordinates from ORCA-job neb_38_262_CI_MEP.QMRegion E -1845.701882366951
  H      -8.997565     -1.672209     -2.305637
  O      -8.491798     -1.492459     -1.491081
  H      -8.601746     -2.251176     -0.869938
  H      -7.272642      1.740171     -5.176429
  O      -7.910750      1.030875     -4.968765
  H      -8.776429      1.506599     -4.866130
  H      -6.881561     -5.141567     -1.386181
  O      -7.814617     -5.382396     -1.619676
  H      -7.890645     -5.007452     -2.521355
  H      -6.935092     -3.363357     -3.495363
  O      -7.548119     -3.974725     -3.968007
  H      -7.004609     -4.401373     -4.670355
  H     -10.053832      3.279861     -4.899754
  O     -10.172022      2.354559     -4.629882
  H     -10.362587      2.466865     -3.671196
  H      -8.668593     -2.609944     -4.327928
  O      -9.232678     -1.824987     -4.163675
  H      -8.860672     -1.121965     -4.710790
  S     -12.549695     -2.304636     -5.103342
  H     -11.377225     -2.942210     -4.914284
  H     -11.960734     -1.114518     -4.871102
21
Coordinates from ORCA-job neb_38_262_CI_MEP.QMRegion E -1845.701504689603
  H      -8.996085     -1.699222     -2.299558
  O      -8.491811     -1.500869     -1.488589
  H      -8.592986     -2.254391     -0.858442
  H      -7.279809      1.729188     -5.185018
  O      -7.906770      1.010564     -4.976627
  H      -8.779264      1.471387     -4.866928
  H      -6.889814     -5.150707     -1.364183
  O      -7.822995     -5.397210     -1.591721
  H      -7.901500     -5.030010     -2.496415
  H      -6.935003     -3.395356     -3.477694
  O      -7.543519     -4.018402     -3.940186
  H      -7.001710     -4.437709     -4.649215
  H     -10.057554      3.241583     -4.894349
  O     -10.173524      2.321111     -4.610591
  H     -10.361393      2.446334     -3.652667
  H      -8.680714     -2.663189     -4.309605
  O      -9.238085     -1.871151     -4.158772
  H      -8.846767     -1.177349     -4.703827
  S     -12.475208     -2.896632     -4.929308
  H     -11.265002     -3.486240     -4.885451
  H     -11.907177     -1.688996     -4.747426
21
Coordinates from ORCA-job neb_38_262_CI_MEP.QMRegion E -1845.701664647050
  H      -8.987328     -1.713074     -2.293658
  O      -8.483322     -1.507004     -1.484777
  H      -8.579528     -2.259862     -0.851783
  H      -7.269633      1.721454     -5.187725
  O      -7.894096      1.000344     -4.980440
  H      -8.767796      1.457718     -4.866785
  H      -6.885424     -5.157540     -1.355018
  O      -7.819753     -5.402468     -1.580897
  H      -7.896379     -5.037966     -2.486785
  H      -6.926070     -3.406632     -3.470513
  O      -7.532788     -4.033841     -3.930031
  H      -6.990733     -4.451281     -4.640583
  H     -10.042653      3.225309     -4.888991
  O     -10.156043      2.306608     -4.599833
  H     -10.346079      2.436042     -3.642805
  H      -8.682592     -2.680679     -4.300553
  O      -9.240143     -1.888519     -4.151002
  H      -8.848889     -1.196433     -4.697924
  S     -12.246814     -3.531038     -4.716765
  H     -11.004970     -4.042266     -4.824551
  H     -11.737589     -2.290089     -4.593552
21
Coordinates from ORCA-job neb_38_262_CI_MEP.QMRegion E -1845.702133423017
  H      -8.984892     -1.735782     -2.278536
  O      -8.475491     -1.517712     -1.476732
  H      -8.564272     -2.268822     -0.838580
  H      -7.253794      1.710803     -5.189379
  O      -7.877738      0.988443     -4.984913
  H      -8.751159      1.444196     -4.869548
  H      -6.886481     -5.165920     -1.345740
  O      -7.822171     -5.413646     -1.563565
  H      -7.906435     -5.054044     -2.470026
  H      -6.917475     -3.425484     -3.460508
  O      -7.523610     -4.055150     -3.917220
  H      -6.983428     -4.467822     -4.632594
  H     -10.027771      3.208500     -4.887614
  O     -10.136086      2.291261     -4.593340
  H     -10.329631      2.423829     -3.637500
  H      -8.682748     -2.712590     -4.275670
  O      -9.272479     -1.943362     -4.125111
  H      -8.932163     -1.244751     -4.696305
  S     -11.887848     -4.170519     -4.443946
  H     -10.633787     -4.572011     -4.732429
  H     -11.486483     -2.883582     -4.428684
21
Coordinates from ORCA-job neb_38_262_CI_MEP.QMRegion E -1845.703511186135
  H      -9.014199     -1.721670     -2.280010
  O      -8.490274     -1.509037     -1.485295
  H      -8.583847     -2.256564     -0.844871
  H      -7.256317      1.720284     -5.182073
  O      -7.887343      1.004098     -4.977213
  H      -8.755459      1.472893     -4.873831
  H      -6.897056     -5.150748     -1.358219
  O      -7.832485     -5.404895     -1.566757
  H      -7.941634     -5.035444     -2.464798
  H      -6.935894     -3.398981     -3.466772
  O      -7.542916     -4.020414     -3.934474
  H      -6.997414     -4.438514     -4.641366
  H     -10.029832      3.239498     -4.889882
  O     -10.144764      2.319333     -4.605579
  H     -10.337968      2.444279     -3.648713
  H      -8.730853     -2.716491     -4.261780
  O      -9.359605     -1.980703     -4.096703
  H      -9.073305     -1.265796     -4.677366
  S     -11.278782     -4.960826     -4.100581
  H     -10.041815     -5.258779     -4.546069
  H     -11.012207     -3.638121     -4.138072
