36
Coordinates from ORCA-job neb_123_126_CI_MEP.QMRegion E -2202.354728150227
  H       1.955446     -3.671119      4.146690
  O       1.812487     -4.104335      5.016644
  H       2.373566     -3.583093      5.613399
  H       4.426269     -2.324236      5.619357
  O       4.123430     -2.885763      6.367112
  H       4.499897     -3.764547      6.155430
  H       2.030194     -0.827990      5.165035
  O       1.497188     -1.367087      5.782746
  H       1.563674     -0.967389      6.662428
  H      -4.053069      1.190981      6.921389
  O      -3.856221      1.663974      7.772126
  H      -4.733110      2.051808      8.041513
  H       4.308239     -0.704292      7.202676
  O       4.141399      0.193772      6.900188
  H       4.967530      0.514111      6.501496
  H      -0.604483      2.108329      7.664977
  O      -1.215195      1.976521      6.922984
  H      -2.099946      1.945405      7.305795
  H      -2.543708      3.035833     10.523748
  O      -2.308854      2.111445     10.312679
  H      -2.911950      1.876553      9.592983
  H      -0.079283      3.397431      8.962414
  O       0.192861      2.502948      9.264170
  H      -0.595354      2.241949      9.788715
  H       2.071446      2.251655      8.511080
  O       2.754883      2.391848      7.843912
  H       3.203277      1.533442      7.714841
  H       0.532309      0.325395      8.746415
  O       0.520833     -0.506075      8.263145
  H      -0.431660     -0.695063      8.125783
  H      -2.727969     -1.627939      7.618502
  O      -2.202584     -0.825590      7.794211
  H      -2.835824     -0.199286      8.159624
  S       2.930427     -2.554511      9.696032
  H       1.814627     -1.896194      9.294657
  H       3.281280     -2.828376      8.420478
36
Coordinates from ORCA-job neb_123_126_CI_MEP.QMRegion E -2202.352332152339
  H       1.978368     -3.653539      4.134854
  O       1.842961     -4.087562      5.006065
  H       2.396301     -3.558471      5.601736
  H       4.471634     -2.328012      5.600264
  O       4.172005     -2.826911      6.393118
  H       4.520537     -3.724103      6.223758
  H       2.023987     -0.814266      5.116531
  O       1.508673     -1.362402      5.742839
  H       1.599060     -0.978537      6.626093
  H      -4.044763      1.203906      6.905330
  O      -3.849657      1.671535      7.760049
  H      -4.728475      2.051620      8.033894
  H       4.324109     -0.755817      7.020036
  O       4.217683      0.199467      6.954807
  H       5.014400      0.540460      6.514952
  H      -0.569610      2.106234      7.659375
  O      -1.193230      1.982759      6.926052
  H      -2.072285      1.965277      7.321599
  H      -2.533548      3.021693     10.510686
  O      -2.292765      2.100511     10.294377
  H      -2.897954      1.862297      9.577550
  H      -0.066676      3.403698      8.966451
  O       0.218061      2.511021      9.261212
  H      -0.566986      2.234122      9.780824
  H       2.069210      2.248792      8.499893
  O       2.759370      2.385311      7.838008
  H       3.209022      1.527958      7.719312
  H       0.560134      0.251217      8.768979
  O       0.507699     -0.531521      8.213508
  H      -0.452429     -0.658281      8.051529
  H      -2.718490     -1.622062      7.575924
  O      -2.201544     -0.809170      7.726250
  H      -2.837079     -0.183009      8.088246
  S       1.831459     -2.560043     10.575121
  H       0.977559     -1.902146      9.750829
  H       2.765917     -2.590523      9.601923
36
Coordinates from ORCA-job neb_123_126_CI_MEP.QMRegion E -2202.350804031837
  H       1.972596     -3.652819      4.136770
  O       1.840068     -4.087323      5.008122
  H       2.394270     -3.556206      5.601619
  H       4.465449     -2.325611      5.594962
  O       4.161711     -2.821253      6.388019
  H       4.513832     -3.717960      6.226342
  H       2.014064     -0.814813      5.107862
  O       1.502191     -1.363448      5.736381
  H       1.608178     -0.987359      6.621274
  H      -4.046911      1.207104      6.907691
  O      -3.851466      1.672514      7.762864
  H      -4.730275      2.052825      8.037125
  H       4.316975     -0.764827      7.013908
  O       4.211567      0.191818      6.962045
  H       5.003669      0.536791      6.517574
  H      -0.562228      2.091891      7.665383
  O      -1.192990      1.980834      6.935305
  H      -2.068978      1.973526      7.337854
  H      -2.532572      3.023818     10.513625
  O      -2.291302      2.102083     10.300422
  H      -2.899102      1.860010      9.587498
  H      -0.069090      3.411700      8.971879
  O       0.223496      2.522098      9.267192
  H      -0.558725      2.236928      9.785250
  H       2.038495      2.240339      8.476355
  O       2.750111      2.385134      7.838193
  H       3.192177      1.525320      7.712649
  H       0.595023      0.169501      8.861207
  O       0.535281     -0.524885      8.200934
  H      -0.426117     -0.630928      8.039259
  H      -2.712238     -1.626528      7.616386
  O      -2.188931     -0.823812      7.795017
  H      -2.831398     -0.180253      8.111656
  S       1.117200     -2.345247     11.024980
  H       0.402798     -2.004495      9.928091
  H       2.267395     -2.133219     10.350365
36
Coordinates from ORCA-job neb_123_126_CI_MEP.QMRegion E -2202.350241961621
  H       1.979910     -3.653149      4.140520
  O       1.843486     -4.086878      5.011363
  H       2.399775     -3.560568      5.607194
  H       4.479971     -2.328107      5.598488
  O       4.175437     -2.821625      6.392052
  H       4.522229     -3.720411      6.230986
  H       2.024303     -0.814793      5.127625
  O       1.504928     -1.358306      5.753620
  H       1.606597     -0.980574      6.638946
  H      -4.043797      1.203749      6.908274
  O      -3.846449      1.669149      7.763335
  H      -4.724698      2.049251      8.038493
  H       4.313290     -0.753461      7.038628
  O       4.216620      0.203591      6.977044
  H       5.012666      0.538734      6.532177
  H      -0.563806      2.103128      7.662214
  O      -1.192243      1.980517      6.933448
  H      -2.068867      1.968871      7.335481
  H      -2.533731      3.024864     10.527313
  O      -2.288015      2.102419     10.321241
  H      -2.897437      1.850122      9.613485
  H      -0.072439      3.410115      8.978342
  O       0.215388      2.521349      9.282180
  H      -0.572425      2.242444      9.797603
  H       2.047937      2.249648      8.495827
  O       2.747275      2.386542      7.843638
  H       3.188041      1.525340      7.716659
  H       0.578291      0.273911      8.795932
  O       0.548758     -0.503314      8.232826
  H      -0.406532     -0.633318      8.053155
  H      -2.718130     -1.631962      7.623234
  O      -2.187010     -0.836179      7.812023
  H      -2.827873     -0.185769      8.117784
  S       0.586714     -2.424594     11.191274
  H       0.104122     -2.003227     10.000757
  H       1.621412     -1.563098     11.087687
36
Coordinates from ORCA-job neb_123_126_CI_MEP.QMRegion E -2202.348603738655
  H       1.987654     -3.643032      4.155402
  O       1.852494     -4.082508      5.023517
  H       2.401987     -3.554543      5.623644
  H       4.495919     -2.316687      5.617530
  O       4.201056     -2.807205      6.416784
  H       4.535498     -3.709321      6.251424
  H       2.024533     -0.815171      5.129621
  O       1.505524     -1.364403      5.750479
  H       1.608543     -0.992989      6.639113
  H      -4.034784      1.210212      6.920024
  O      -3.837111      1.666561      7.778259
  H      -4.715347      2.044519      8.054910
  H       4.336527     -0.741834      7.077277
  O       4.236436      0.214868      7.016519
  H       5.025608      0.550988      6.560878
  H      -0.503142      2.028378      7.661375
  O      -1.170677      1.982642      6.957989
  H      -2.027637      2.001673      7.397732
  H      -2.519388      3.019060     10.562843
  O      -2.282048      2.090916     10.372120
  H      -2.893111      1.836673      9.667441
  H      -0.076315      3.452541      9.011088
  O       0.256518      2.591681      9.343789
  H      -0.525175      2.266154      9.831653
  H       2.002584      2.250689      8.469748
  O       2.738219      2.406417      7.859835
  H       3.178281      1.546509      7.732147
  H       0.758394     -0.063579      9.001503
  O       0.588624     -0.304300      8.091978
  H      -0.355708     -0.554640      8.056038
  H      -2.695222     -1.646300      7.713575
  O      -2.155331     -0.886262      8.000931
  H      -2.796438     -0.184462      8.162792
  S       0.710350     -2.475282     11.094135
  H      -0.206882     -1.970713     10.241510
  H       1.160358     -1.246923     11.424587
36
Coordinates from ORCA-job neb_123_126_CI_MEP.QMRegion E -2202.352522869013
  H       1.949682     -3.648141      4.134290
  O       1.812413     -4.085483      5.003969
  H       2.345185     -3.538184      5.603185
  H       4.433735     -2.305504      5.596814
  O       4.121396     -2.809842      6.380547
  H       4.481914     -3.701548      6.216864
  H       1.999047     -0.804180      5.124266
  O       1.487421     -1.360026      5.746328
  H       1.520364     -0.944521      6.625497
  H      -4.067917      1.230355      6.894783
  O      -3.869276      1.683765      7.754166
  H      -4.747584      2.066129      8.031757
  H       4.232534     -0.710430      7.028518
  O       4.143823      0.246193      6.961770
  H       4.954165      0.571377      6.537157
  H      -0.559088      2.051573      7.659037
  O      -1.212033      1.985051      6.942147
  H      -2.078665      2.011773      7.362075
  H      -2.585669      3.029428     10.534029
  O      -2.379440      2.095196     10.338298
  H      -2.980511      1.870781      9.615125
  H      -0.138610      3.479003      9.025066
  O       0.191131      2.614197      9.348230
  H      -0.597681      2.263440      9.802075
  H       1.889029      2.245248      8.448943
  O       2.654739      2.425485      7.880813
  H       3.079976      1.565156      7.720686
  H       0.793204     -0.432456      8.925524
  O       0.540332     -0.184706      8.031450
  H      -0.399111     -0.447513      7.968628
  H      -2.756518     -1.602791      7.711477
  O      -2.226579     -0.847740      8.028264
  H      -2.868182     -0.135967      8.144541
  S       0.513848     -2.017340     10.887804
  H      -0.679569     -1.796864     10.294262
  H       0.416107     -0.899927     11.635040
36
Coordinates from ORCA-job neb_123_126_CI_MEP.QMRegion E -2202.359605402262
  H       1.980996     -3.650138      4.146084
  O       1.849134     -4.086508      5.016565
  H       2.408919     -3.559516      5.609193
  H       4.472040     -2.319102      5.595905
  O       4.170181     -2.819722      6.386903
  H       4.524815     -3.714335      6.221434
  H       2.020022     -0.809972      5.144267
  O       1.491955     -1.364843      5.751953
  H       1.598242     -1.024167      6.654539
  H      -4.047010      1.206426      6.907006
  O      -3.850401      1.655708      7.769944
  H      -4.729126      2.034638      8.045013
  H       4.342465     -0.756777      7.013303
  O       4.219270      0.195340      6.940322
  H       5.013699      0.550154      6.508422
  H      -0.514774      2.038295      7.661809
  O      -1.176588      1.960038      6.951932
  H      -2.036992      1.973207      7.384052
  H      -2.544801      3.022077     10.535469
  O      -2.330207      2.090353     10.335103
  H      -2.943972      1.853127      9.626344
  H      -0.100691      3.452604      8.991920
  O       0.264757      2.586097      9.269988
  H      -0.473978      2.205751      9.772237
  H       1.929795      2.152521      8.385405
  O       2.687543      2.337955      7.809497
  H       3.134921      1.485096      7.667252
  H       0.751718     -0.537448      9.127056
  O       0.650421     -0.407159      8.178439
  H      -0.288985     -0.617805      8.029635
  H      -2.733629     -1.654391      7.713713
  O      -2.193542     -0.897075      8.012427
  H      -2.829273     -0.178445      8.116642
  S      -0.784121     -0.990413     11.221679
  H      -1.560303     -1.243141     10.140796
  H      -1.305428      0.247982     11.337840
