36
Coordinates from ORCA-job neb_41_155_CI_MEP.QMRegion E -2202.351050267050
  H      -5.787427     -3.184674      1.401452
  O      -6.252706     -3.749765      2.070289
  H      -6.025917     -3.328490      2.925443
  H      -7.595481      3.857481     -1.946125
  O      -7.901018      3.283595     -1.207445
  H      -7.746308      2.373549     -1.562460
  H      -6.320006     -0.165080      1.192625
  O      -6.689426     -0.170783      0.290509
  H      -7.595922     -0.478359      0.365082
  H      -5.341892     -3.161168     -0.552537
  O      -5.105851     -2.424825      0.047031
  H      -5.676270     -1.668282     -0.194327
  H      -8.995827     -1.794985     -2.210871
  O      -8.455295     -1.595990     -1.420196
  H      -8.535177     -2.354361     -0.788898
  H      -7.863797     -3.755842      0.981333
  O      -8.541086     -3.678301      0.283985
  H      -8.398917     -4.445266     -0.305350
  H      -7.293249      1.618535     -5.243101
  O      -7.897337      0.880651     -5.031518
  H      -8.793557      1.299834     -5.007469
  H      -7.835197      0.078652     -1.923048
  O      -7.396745      0.846799     -2.326367
  H      -7.579176      0.818927     -3.289181
  H     -10.108524      3.042344     -5.088971
  O     -10.224024      2.138889     -4.764026
  H     -10.312803      2.304448     -3.798069
  H      -8.839274     -2.891270     -4.100893
  O      -9.363803     -2.066451     -4.000929
  H      -8.953122     -1.446816     -4.616130
  H     -10.436081      4.048710     -2.854600
  O     -10.492492      3.284490     -2.257943
  H      -9.637073      3.305598     -1.774109
  S     -11.886263     -0.033881     -1.806909
  H     -11.363923     -0.468191     -2.971916
  H     -11.548871      1.250642     -2.048664
36
Coordinates from ORCA-job neb_41_155_CI_MEP.QMRegion E -2202.347973768550
  H      -5.795212     -3.185189      1.377741
  O      -6.255854     -3.748761      2.051029
  H      -6.028028     -3.325545      2.904261
  H      -7.583222      3.860507     -1.946965
  O      -7.887430      3.284065     -1.209124
  H      -7.736867      2.376070     -1.570066
  H      -6.317070     -0.168622      1.179464
  O      -6.699211     -0.169515      0.282214
  H      -7.603982     -0.477817      0.371444
  H      -5.345071     -3.161173     -0.571380
  O      -5.112157     -2.422606      0.027041
  H      -5.685052     -1.669259     -0.216315
  H      -8.972434     -1.808962     -2.298573
  O      -8.470241     -1.586752     -1.486534
  H      -8.561017     -2.337041     -0.847972
  H      -7.874152     -3.735077      0.943638
  O      -8.546369     -3.656388      0.242492
  H      -8.406089     -4.430480     -0.338675
  H      -7.294367      1.624576     -5.266244
  O      -7.900067      0.887976     -5.055402
  H      -8.793778      1.312773     -5.012327
  H      -7.832762      0.074630     -1.960750
  O      -7.392600      0.850241     -2.348853
  H      -7.569350      0.833159     -3.313197
  H     -10.109991      3.050358     -5.068969
  O     -10.226348      2.144543     -4.750650
  H     -10.329592      2.304783     -3.784042
  H      -8.833597     -2.895007     -4.148475
  O      -9.371375     -2.079091     -4.045282
  H      -8.981999     -1.451689     -4.666669
  H     -10.439423      4.059025     -2.849875
  O     -10.482750      3.297264     -2.249012
  H      -9.620075      3.333462     -1.781472
  S     -11.808802     -0.417283     -0.857610
  H     -11.417880     -0.530092     -2.143631
  H     -11.384395      0.861262     -0.789565
36
Coordinates from ORCA-job neb_41_155_CI_MEP.QMRegion E -2202.346099740351
  H      -5.793062     -3.188032      1.386919
  O      -6.254118     -3.751988      2.059229
  H      -6.025876     -3.329537      2.912848
  H      -7.585061      3.860597     -1.942029
  O      -7.885250      3.284359     -1.202505
  H      -7.735497      2.376226     -1.563096
  H      -6.305313     -0.168874      1.183628
  O      -6.703698     -0.169844      0.292596
  H      -7.600652     -0.493643      0.399761
  H      -5.344099     -3.166006     -0.562151
  O      -5.111677     -2.425204      0.034170
  H      -5.686479     -1.674189     -0.210431
  H      -8.972145     -1.818221     -2.316590
  O      -8.487426     -1.582109     -1.495566
  H      -8.572855     -2.331104     -0.854920
  H      -7.865843     -3.733134      0.948574
  O      -8.533446     -3.650127      0.243681
  H      -8.399341     -4.427677     -0.333875
  H      -7.294435      1.623385     -5.255231
  O      -7.898545      0.887065     -5.039302
  H      -8.792969      1.311714     -4.996266
  H      -7.826823      0.067345     -1.954526
  O      -7.390533      0.847555     -2.338144
  H      -7.565981      0.833173     -3.303268
  H     -10.102755      3.053107     -5.049372
  O     -10.221776      2.144708     -4.739079
  H     -10.335563      2.298838     -3.772343
  H      -8.834110     -2.906956     -4.149817
  O      -9.376743     -2.094978     -4.040322
  H      -8.996590     -1.462475     -4.662225
  H     -10.435102      4.062429     -2.844784
  O     -10.490540      3.301967     -2.243738
  H      -9.631999      3.330840     -1.770143
  S     -11.783398     -0.599451     -0.327853
  H     -11.368928     -0.476962     -1.605236
  H     -11.065831      0.479555      0.051405
36
Coordinates from ORCA-job neb_41_155_CI_MEP.QMRegion E -2202.345495206594
  H      -5.810318     -3.190916      1.401252
  O      -6.271292     -3.757114      2.071598
  H      -6.042079     -3.335396      2.925499
  H      -7.600654      3.862220     -1.932435
  O      -7.893899      3.290212     -1.187746
  H      -7.751723      2.380623     -1.545310
  H      -6.306448     -0.169346      1.192466
  O      -6.711438     -0.171448      0.303763
  H      -7.606337     -0.498068      0.417255
  H      -5.351926     -3.171972     -0.548170
  O      -5.122647     -2.429731      0.048065
  H      -5.698644     -1.680174     -0.197324
  H      -8.992825     -1.818818     -2.319839
  O      -8.525398     -1.579100     -1.487498
  H      -8.591830     -2.340424     -0.859893
  H      -7.880986     -3.729151      0.957301
  O      -8.546649     -3.648100      0.250004
  H      -8.411080     -4.427413     -0.324980
  H      -7.307586      1.624598     -5.237660
  O      -7.910473      0.889327     -5.015884
  H      -8.805481      1.315042     -4.973449
  H      -7.844703      0.068823     -1.943444
  O      -7.399167      0.844559     -2.323230
  H      -7.578701      0.836702     -3.288445
  H     -10.108433      3.059493     -5.023631
  O     -10.231167      2.148571     -4.721865
  H     -10.355435      2.296783     -3.755049
  H      -8.846455     -2.914716     -4.142253
  O      -9.392236     -2.106478     -4.023884
  H      -9.024601     -1.469053     -4.648375
  H     -10.442989      4.066979     -2.831058
  O     -10.517622      3.304524     -2.235041
  H      -9.670999      3.323774     -1.742689
  S     -11.888454     -0.441902      0.020591
  H     -11.257524     -0.411675     -1.169904
  H     -10.740306     -0.175110      0.675787
36
Coordinates from ORCA-job neb_41_155_CI_MEP.QMRegion E -2202.346435193499
  H      -5.779905     -3.192433      1.399922
  O      -6.250078     -3.754149      2.069245
  H      -6.021884     -3.334021      2.924681
  H      -7.581922      3.857965     -1.935034
  O      -7.877122      3.288986     -1.188740
  H      -7.734616      2.378001     -1.541622
  H      -6.285502     -0.167712      1.190576
  O      -6.694473     -0.190182      0.303623
  H      -7.610543     -0.439507      0.439063
  H      -5.336986     -3.170100     -0.548787
  O      -5.107313     -2.431443      0.051105
  H      -5.695742     -1.685289     -0.178896
  H      -8.968367     -1.838750     -2.336709
  O      -8.518224     -1.591613     -1.496348
  H      -8.554371     -2.358987     -0.875165
  H      -7.842667     -3.729077      0.958959
  O      -8.517196     -3.651098      0.258386
  H      -8.390525     -4.434217     -0.313707
  H      -7.285377      1.617617     -5.237686
  O      -7.888100      0.881792     -5.016475
  H      -8.782736      1.308602     -4.973394
  H      -7.827612      0.068004     -1.935027
  O      -7.379961      0.840084     -2.318720
  H      -7.554157      0.827322     -3.284271
  H     -10.079339      3.055697     -5.029672
  O     -10.198394      2.146053     -4.722823
  H     -10.318634      2.299466     -3.755478
  H      -8.827813     -2.923791     -4.155180
  O      -9.369956     -2.112528     -4.036276
  H      -8.993629     -1.474737     -4.655274
  H     -10.412000      4.067198     -2.832443
  O     -10.490491      3.299628     -2.244105
  H      -9.650980      3.316551     -1.738903
  S     -11.582256     -0.041899      0.164610
  H     -11.149491     -0.417877     -1.055988
  H     -10.686610     -0.855702      0.770093
36
Coordinates from ORCA-job neb_41_155_CI_MEP.QMRegion E -2202.349293821278
  H      -5.765374     -3.201539      1.416642
  O      -6.238698     -3.764195      2.084024
  H      -6.011163     -3.345218      2.940472
  H      -7.570736      3.848606     -1.934762
  O      -7.868794      3.287262     -1.183558
  H      -7.722326      2.370740     -1.522725
  H      -6.300676     -0.179922      1.210734
  O      -6.721966     -0.225018      0.330981
  H      -7.655890     -0.384413      0.491614
  H      -5.330686     -3.175182     -0.533063
  O      -5.102222     -2.437728      0.068684
  H      -5.710773     -1.702240     -0.144479
  H      -8.955587     -1.864545     -2.341999
  O      -8.502984     -1.603623     -1.507717
  H      -8.533347     -2.354331     -0.868791
  H      -7.823586     -3.730295      0.979526
  O      -8.502204     -3.654236      0.281876
  H      -8.374480     -4.435013     -0.292400
  H      -7.269945      1.611518     -5.216360
  O      -7.869886      0.875577     -4.988076
  H      -8.764651      1.301078     -4.945434
  H      -7.809058      0.055513     -1.900487
  O      -7.374025      0.835171     -2.286007
  H      -7.535230      0.813541     -3.253380
  H     -10.054397      3.054993     -5.000345
  O     -10.172883      2.143755     -4.697547
  H     -10.291994      2.291167     -3.729907
  H      -8.822451     -2.935299     -4.148383
  O      -9.366694     -2.124200     -4.034508
  H      -8.975302     -1.483466     -4.641012
  H     -10.398608      4.058779     -2.804704
  O     -10.464519      3.293110     -2.212911
  H      -9.615827      3.315701     -1.720518
  S     -10.944548     -0.100932      0.612285
  H     -10.921558     -0.340980     -0.713018
  H     -10.593131     -1.370081      0.893236
36
Coordinates from ORCA-job neb_41_155_CI_MEP.QMRegion E -2202.355533195582
  H      -5.779936     -3.178512      1.389512
  O      -6.251537     -3.743273      2.058229
  H      -6.032532     -3.318218      2.913761
  H      -7.603905      3.865274     -1.936528
  O      -7.899735      3.295161     -1.191853
  H      -7.749529      2.383925     -1.545280
  H      -6.267931     -0.140084      1.181203
  O      -6.735521     -0.209107      0.326493
  H      -7.655850     -0.365828      0.585239
  H      -5.357901     -3.134420     -0.560444
  O      -5.130354     -2.406292      0.049644
  H      -5.757841     -1.673448     -0.131461
  H      -8.994452     -1.838794     -2.402229
  O      -8.538744     -1.570399     -1.571107
  H      -8.567932     -2.313955     -0.930607
  H      -7.812977     -3.715976      0.938716
  O      -8.508323     -3.642427      0.256031
  H      -8.398158     -4.427779     -0.316956
  H      -7.300387      1.620305     -5.240521
  O      -7.901306      0.883696     -5.018143
  H      -8.796600      1.305388     -4.977228
  H      -7.816688      0.075237     -1.919339
  O      -7.389094      0.858054     -2.308776
  H      -7.567079      0.835785     -3.272504
  H     -10.100348      3.059201     -5.003223
  O     -10.229250      2.142739     -4.720421
  H     -10.360021      2.271795     -3.753147
  H      -8.841750     -2.951374     -4.177134
  O      -9.414258     -2.158412     -4.076167
  H      -9.041743     -1.509482     -4.685631
  H     -10.456780      4.058159     -2.825272
  O     -10.527632      3.302326     -2.221115
  H      -9.671705      3.320563     -1.743091
  S      -9.841264     -0.695785      1.576655
  H     -10.291476     -0.375084      0.345673
  H      -9.722074     -2.000553      1.247194
