21
Coordinates from ORCA-job neb_71_293_CI_MEP.QMRegion E -1845.685753942425
  H      -4.361192     -2.564019      4.143005
  O      -5.278381     -2.257608      3.968465
  H      -5.161116     -1.470517      3.388520
  H      -5.821366     -3.225311      1.246562
  O      -6.319664     -3.775558      1.900761
  H      -6.104408     -3.342043      2.744952
  H      -6.978182     -0.048371      7.088298
  O      -7.555352      0.623422      7.499723
  H      -8.064934      0.990582      6.771713
  H      -2.031035     -3.066235      4.564256
  O      -2.909131     -3.501839      4.662568
  H      -2.905707     -4.132283      3.912622
  H      -5.342346     -1.986155      6.902443
  O      -6.017452     -1.492927      6.403573
  H      -5.901547     -1.827459      5.478865
  H      -3.516047     -3.632147      7.849129
  O      -3.681782     -2.936393      7.208531
  H      -3.377863     -3.289238      6.344827
  S      -8.259922     -2.521295      9.054387
  H      -8.319346     -1.188001      8.837632
  H      -7.797421     -2.720461      7.802192
21
Coordinates from ORCA-job neb_71_293_CI_MEP.QMRegion E -1845.684389773166
  H      -4.339775     -2.534556      4.154239
  O      -5.261004     -2.238996      3.979060
  H      -5.152103     -1.451209      3.398124
  H      -5.805089     -3.212527      1.253329
  O      -6.300214     -3.757796      1.914458
  H      -6.063224     -3.328017      2.755508
  H      -7.015104     -0.035037      7.084297
  O      -7.581172      0.645538      7.495377
  H      -8.051737      1.047048      6.759049
  H      -2.016736     -3.035836      4.567329
  O      -2.898192     -3.466359      4.663979
  H      -2.896410     -4.098068      3.915732
  H      -5.389285     -1.967903      6.922488
  O      -6.035647     -1.462273      6.400805
  H      -5.901247     -1.804602      5.482034
  H      -3.508386     -3.604464      7.843249
  O      -3.680271     -2.904852      7.208710
  H      -3.376065     -3.249197      6.342109
  S      -7.978533     -3.489795      8.623635
  H      -8.205873     -2.194021      8.338045
  H      -7.719247     -3.735666      7.332205
21
Coordinates from ORCA-job neb_71_293_CI_MEP.QMRegion E -1845.683644606662
  H      -4.352363     -2.564677      4.145580
  O      -5.272081     -2.268826      3.964103
  H      -5.159100     -1.477523      3.389811
  H      -5.807986     -3.238050      1.245234
  O      -6.308080     -3.782013      1.903362
  H      -6.071897     -3.354566      2.746252
  H      -7.013664     -0.060545      7.085604
  O      -7.578363      0.639930      7.462173
  H      -8.005085      1.040930      6.699465
  H      -2.020367     -3.061878      4.561723
  O      -2.900286     -3.494726      4.659263
  H      -2.898135     -4.125686      3.910092
  H      -5.361420     -2.007295      6.903769
  O      -6.018818     -1.487982      6.406347
  H      -5.916483     -1.832897      5.486301
  H      -3.578947     -3.645387      7.826547
  O      -3.687334     -2.927298      7.198649
  H      -3.385418     -3.280109      6.334653
  S      -7.789756     -3.856507      8.482467
  H      -7.921570     -2.724818      7.761438
  H      -8.203722     -4.560120      7.406660
21
Coordinates from ORCA-job neb_71_293_CI_MEP.QMRegion E -1845.683842918597
  H      -4.369693     -2.552670      4.151284
  O      -5.287379     -2.246905      3.977464
  H      -5.170125     -1.461897      3.394882
  H      -5.817369     -3.220582      1.253731
  O      -6.315229     -3.770986      1.907948
  H      -6.097485     -3.339957      2.753054
  H      -7.061928     -0.048442      7.115191
  O      -7.607915      0.675159      7.471851
  H      -8.016859      1.074274      6.698588
  H      -2.032931     -3.046329      4.575157
  O      -2.913660     -3.477088      4.670524
  H      -2.907989     -4.113281      3.926472
  H      -5.348093     -1.975336      6.897889
  O      -6.037592     -1.488924      6.410333
  H      -5.918511     -1.815785      5.483768
  H      -3.596846     -3.628318      7.847287
  O      -3.712797     -2.913534      7.216743
  H      -3.410534     -3.267188      6.353073
  S      -7.519667     -4.210658      8.137059
  H      -7.502530     -3.295824      7.145632
  H      -8.853289     -4.359220      8.055871
21
Coordinates from ORCA-job neb_71_293_CI_MEP.QMRegion E -1845.683418556583
  H      -4.350338     -2.551132      4.145168
  O      -5.270248     -2.253010      3.967586
  H      -5.157366     -1.464923      3.388041
  H      -5.813140     -3.222784      1.246480
  O      -6.308337     -3.768692      1.906867
  H      -6.077378     -3.334574      2.747432
  H      -7.046370     -0.053028      7.096780
  O      -7.594450      0.665669      7.463066
  H      -8.003528      1.072193      6.693664
  H      -2.022326     -3.044213      4.568911
  O      -2.903165     -3.476009      4.662358
  H      -2.896305     -4.109480      3.915533
  H      -5.382188     -1.989691      6.899429
  O      -6.039864     -1.479490      6.394921
  H      -5.912388     -1.809933      5.471849
  H      -3.584084     -3.626063      7.834589
  O      -3.698732     -2.911110      7.204145
  H      -3.388762     -3.261399      6.342171
  S      -7.658164     -4.521356      7.973953
  H      -7.433273     -4.013794      6.744746
  H      -8.488740     -3.504605      8.284902
21
Coordinates from ORCA-job neb_71_293_CI_MEP.QMRegion E -1845.684070530107
  H      -4.330352     -2.563237      4.113949
  O      -5.252633     -2.272333      3.933222
  H      -5.143548     -1.477288      3.362163
  H      -5.809212     -3.234117      1.227726
  O      -6.303586     -3.775443      1.893273
  H      -6.057975     -3.338552      2.729076
  H      -6.992502     -0.054342      7.044017
  O      -7.553398      0.658655      7.401593
  H      -7.940825      1.072763      6.625108
  H      -2.009226     -3.044961      4.546467
  O      -2.892270     -3.474814      4.634849
  H      -2.882023     -4.110608      3.888942
  H      -5.301767     -2.002815      6.827682
  O      -6.001077     -1.499778      6.366230
  H      -5.901190     -1.818937      5.436119
  H      -3.733284     -3.665204      7.740548
  O      -3.696830     -2.909144      7.150407
  H      -3.381682     -3.258057      6.288454
  S      -7.244167     -4.636166      7.600400
  H      -7.075925     -4.611434      6.262541
  H      -7.626630     -3.341663      7.606586
21
Coordinates from ORCA-job neb_71_293_CI_MEP.QMRegion E -1845.685364772433
  H      -4.374044     -2.543675      4.133259
  O      -5.294092     -2.234760      3.970978
  H      -5.177688     -1.448712      3.388107
  H      -5.817835     -3.214029      1.242455
  O      -6.312329     -3.757752      1.906602
  H      -6.101921     -3.302231      2.741139
  H      -7.002744     -0.060014      7.131186
  O      -7.556094      0.651754      7.501105
  H      -7.973142      1.057764      6.735758
  H      -2.038730     -3.040256      4.545055
  O      -2.924558     -3.464920      4.621991
  H      -2.906952     -4.100450      3.875705
  H      -5.235251     -1.983684      6.851228
  O      -5.986523     -1.508342      6.436927
  H      -5.911625     -1.799289      5.495661
  H      -3.941948     -3.741404      7.657204
  O      -3.717058     -2.946608      7.165016
  H      -3.424309     -3.273586      6.287792
  S      -6.538248     -5.071470      6.708881
  H      -6.148015     -5.003400      5.419316
  H      -6.885380     -3.763844      6.714423
