21
Coordinates from ORCA-job neb_83_207_CI_MEP.QMRegion E -1845.693239894101
  H      -0.696062      8.774863     -2.320283
  O      -0.553501      9.638137     -1.859270
  H       0.152013      9.456752     -1.211267
  H       1.816719      8.312740      0.617809
  O       1.475000      8.602378     -0.260684
  H       2.265928      8.605070     -0.827250
  H       3.708373      7.037091     -1.332039
  O       3.920343      7.974506     -1.553689
  H       4.297317      7.876231     -2.446384
  H       4.965601      8.347952     -0.072114
  O       5.305677      8.360167      0.847160
  H       5.546640      7.431468      1.003902
  H       0.420053      8.661418      4.227736
  O       1.078941      7.991491      4.001594
  H       1.281309      7.505265      4.829634
  H       3.674771      8.179701      1.795683
  O       2.855790      7.664145      1.907213
  H       2.452050      7.881326      2.767096
  S       7.154199     11.263436      1.114570
  H       6.547550     10.052872      1.110515
  H       7.312465     11.245851     -0.224497
21
Coordinates from ORCA-job neb_83_207_CI_MEP.QMRegion E -1845.692255040096
  H      -0.687441      8.753674     -2.332172
  O      -0.537647      9.610278     -1.859765
  H       0.192240      9.423061     -1.241988
  H       1.900634      8.287404      0.581626
  O       1.560222      8.574208     -0.298113
  H       2.349579      8.548051     -0.867720
  H       3.779217      6.995932     -1.316391
  O       4.024033      7.926807     -1.534381
  H       4.387831      7.818448     -2.432930
  H       5.045079      8.301929     -0.065308
  O       5.371364      8.355915      0.858287
  H       5.616356      7.437166      1.054335
  H       0.458192      8.648367      4.198066
  O       1.112683      7.973336      3.976293
  H       1.302887      7.486934      4.807174
  H       3.741646      8.147229      1.765803
  O       2.911553      7.648345      1.886855
  H       2.519067      7.864085      2.751174
  S       5.933308     11.822023      1.179236
  H       5.401079     10.614178      1.451588
  H       6.757073     11.275633      0.262924
21
Coordinates from ORCA-job neb_83_207_CI_MEP.QMRegion E -1845.691910331406
  H      -0.692762      8.757590     -2.331004
  O      -0.544017      9.616665     -1.862627
  H       0.183306      9.433359     -1.240714
  H       1.883305      8.304673      0.584784
  O       1.543218      8.586765     -0.296405
  H       2.333778      8.561925     -0.864788
  H       3.770315      7.007429     -1.308163
  O       4.006630      7.940022     -1.526545
  H       4.370297      7.835520     -2.424886
  H       5.044137      8.330741     -0.042173
  O       5.366844      8.373322      0.881984
  H       5.606119      7.449974      1.064519
  H       0.430946      8.653114      4.204638
  O       1.092847      7.984947      3.982888
  H       1.287413      7.497988      4.812228
  H       3.732843      8.156928      1.781035
  O       2.896615      7.665878      1.892815
  H       2.500210      7.881325      2.755438
  S       5.437820     11.922608      1.150293
  H       4.688344     10.838124      1.426206
  H       6.432476     11.147271      0.676667
21
Coordinates from ORCA-job neb_83_207_CI_MEP.QMRegion E -1845.692154823160
  H      -0.693008      8.759106     -2.334351
  O      -0.546840      9.617025     -1.863224
  H       0.184710      9.434973     -1.246191
  H       1.889096      8.303729      0.583175
  O       1.548327      8.590170     -0.296774
  H       2.337318      8.559318     -0.867384
  H       3.771364      7.009633     -1.311724
  O       4.007159      7.942373     -1.529318
  H       4.368395      7.839534     -2.428988
  H       5.046198      8.344714     -0.044290
  O       5.364444      8.384281      0.881587
  H       5.612572      7.462377      1.057765
  H       0.427038      8.652368      4.201362
  O       1.090072      7.985033      3.979786
  H       1.284381      7.498734      4.809286
  H       3.737183      8.161510      1.783348
  O       2.898780      7.673071      1.892642
  H       2.501080      7.886513      2.755239
  S       5.081899     11.953877      1.182849
  H       4.162083     10.975866      1.291006
  H       6.056512     11.041297      1.009697
21
Coordinates from ORCA-job neb_83_207_CI_MEP.QMRegion E -1845.692184579445
  H      -0.701091      8.760582     -2.320988
  O      -0.557084      9.615611     -1.844034
  H       0.163320      9.427606     -1.215981
  H       1.848081      8.287819      0.630756
  O       1.514972      8.588970     -0.249116
  H       2.307095      8.563653     -0.815027
  H       3.743807      7.015139     -1.296372
  O       3.972365      7.951994     -1.505192
  H       4.334393      7.861513     -2.404852
  H       4.993585      8.359966     -0.001724
  O       5.303094      8.412831      0.925687
  H       5.582768      7.501434      1.106988
  H       0.392158      8.669116      4.231729
  O       1.052418      7.999285      4.008897
  H       1.255392      7.516574      4.838282
  H       3.682684      8.172028      1.832228
  O       2.852425      7.669743      1.937529
  H       2.443684      7.890027      2.794288
  S       4.512736     11.885760      1.438812
  H       3.570560     10.964819      1.144503
  H       5.492908     10.984651      1.234738
21
Coordinates from ORCA-job neb_83_207_CI_MEP.QMRegion E -1845.692400075890
  H      -0.673195      8.756319     -2.315992
  O      -0.521923      9.609338     -1.838508
  H       0.174162      9.403499     -1.187737
  H       1.836974      8.257270      0.676514
  O       1.512873      8.580854     -0.201548
  H       2.307548      8.560913     -0.763745
  H       3.749323      7.016172     -1.290643
  O       3.959296      7.958547     -1.493913
  H       4.326778      7.880649     -2.391779
  H       4.960837      8.366351      0.032359
  O       5.261187      8.447355      0.960052
  H       5.585827      7.556000      1.158040
  H       0.401021      8.700406      4.256921
  O       1.051038      8.021395      4.031804
  H       1.266492      7.545325      4.861725
  H       3.642073      8.182683      1.870504
  O       2.830908      7.652012      1.978140
  H       2.406777      7.892011      2.823409
  S       3.723462     11.663320      1.744316
  H       2.918845     10.908323      0.974891
  H       4.814504     10.977377      1.354438
21
Coordinates from ORCA-job neb_83_207_CI_MEP.QMRegion E -1845.692543677123
  H      -0.695166      8.748182     -2.300182
  O      -0.537330      9.602653     -1.825579
  H       0.157292      9.397072     -1.174375
  H       1.841188      8.249705      0.690748
  O       1.511635      8.578628     -0.185489
  H       2.303776      8.555391     -0.752371
  H       3.745599      7.007630     -1.266865
  O       3.958172      7.949903     -1.470180
  H       4.320311      7.870620     -2.369957
  H       4.941421      8.412881      0.059058
  O       5.226346      8.502349      0.990973
  H       5.575068      7.621644      1.192827
  H       0.411030      8.729009      4.270517
  O       1.047065      8.036558      4.046500
  H       1.262164      7.563203      4.877828
  H       3.624046      8.190831      1.882066
  O       2.815322      7.658160      1.996857
  H       2.386127      7.914330      2.836249
  S       3.048375     11.507393      1.764552
  H       2.326578     10.701518      0.954811
  H       4.159161     10.762874      1.590234
