18
Coordinates from ORCA-job neb_115_429_CI_MEP.QMRegion E -1774.352162790388
  H      -3.537774      6.373936     -0.518577
  O      -3.344931      7.052248     -1.220163
  H      -3.157113      7.898002     -0.748639
  H      -0.650486      8.804374     -2.246155
  O      -0.520753      9.637475     -1.735936
  H       0.247055      9.448620     -1.164277
  H      -1.874481      9.663307     -0.689757
  O      -2.679710      9.428579     -0.169103
  H      -3.362630     10.108442     -0.292559
  H      -2.033758     10.408095     -2.986725
  O      -2.901737     10.447384     -3.411872
  H      -2.792757     11.093308     -4.115129
  H      -4.293238      8.879428     -3.431112
  O      -4.998802      8.325176     -3.068175
  H      -4.549935      7.802821     -2.370748
  S      -5.601120     10.824675     -0.758769
  H      -6.124201      9.952718      0.129802
  H      -5.556105      9.880136     -1.739911
18
Coordinates from ORCA-job neb_115_429_CI_MEP.QMRegion E -1774.350546661216
  H      -3.541841      6.344643     -0.525133
  O      -3.353052      7.020960     -1.230417
  H      -3.193112      7.870170     -0.761054
  H      -0.658328      8.755320     -2.228893
  O      -0.521630      9.583732     -1.709197
  H       0.252036      9.387329     -1.146624
  H      -1.850038      9.595105     -0.670485
  O      -2.679569      9.393044     -0.169958
  H      -3.270634     10.162251     -0.205637
  H      -1.980664     10.309364     -3.000532
  O      -2.798708     10.360156     -3.515441
  H      -2.532784     10.795715     -4.330094
  H      -4.286514      8.809018     -3.454208
  O      -5.029776      8.314152     -3.084848
  H      -4.623948      7.790259     -2.367457
  S      -5.205623     11.456744     -0.658008
  H      -5.947181     10.367789     -0.369859
  H      -5.022492     11.045045     -1.928958
18
Coordinates from ORCA-job neb_115_429_CI_MEP.QMRegion E -1774.350370783999
  H      -3.546875      6.345957     -0.520061
  O      -3.353858      7.022926     -1.224828
  H      -3.195655      7.871192     -0.754876
  H      -0.657237      8.748068     -2.237414
  O      -0.512231      9.580991     -1.726348
  H       0.260448      9.383397     -1.163007
  H      -1.835663      9.593643     -0.673550
  O      -2.665786      9.401011     -0.170962
  H      -3.233964     10.187838     -0.187511
  H      -1.928937     10.312103     -3.040152
  O      -2.738171     10.385605     -3.566986
  H      -2.431193     10.726696     -4.412226
  H      -4.274848      8.817730     -3.474631
  O      -5.008860      8.312641     -3.101727
  H      -4.596101      7.795665     -2.383437
  S      -5.033072     11.674498     -0.625188
  H      -5.753062     10.569799     -0.908563
  H      -4.577656     11.727334     -1.892129
18
Coordinates from ORCA-job neb_115_429_CI_MEP.QMRegion E -1774.350264821476
  H      -3.546554      6.352553     -0.519624
  O      -3.350658      7.029831     -1.222893
  H      -3.195450      7.878082     -0.752058
  H      -0.654832      8.751064     -2.238354
  O      -0.507938      9.584851     -1.729322
  H       0.265434      9.387858     -1.166818
  H      -1.832363      9.599395     -0.674318
  O      -2.662367      9.410207     -0.170745
  H      -3.224126     10.201776     -0.185382
  H      -1.896575     10.314699     -3.055346
  O      -2.702638     10.389272     -3.586857
  H      -2.386861     10.701515     -4.439751
  H      -4.245943      8.815372     -3.491586
  O      -4.987188      8.323343     -3.115279
  H      -4.582196      7.808020     -2.391150
  S      -4.930118     11.781018     -0.654044
  H      -5.489141     10.790527     -1.375519
  H      -4.232183     12.211201     -1.719381
18
Coordinates from ORCA-job neb_115_429_CI_MEP.QMRegion E -1774.350211559581
  H      -3.547682      6.357683     -0.521416
  O      -3.353365      7.033792     -1.225984
  H      -3.198825      7.882334     -0.755593
  H      -0.655773      8.755798     -2.239728
  O      -0.508279      9.588638     -1.729117
  H       0.265141      9.390840     -1.166868
  H      -1.830865      9.595992     -0.672507
  O      -2.663328      9.413236     -0.170831
  H      -3.222367     10.206365     -0.202384
  H      -1.900204     10.334370     -3.038816
  O      -2.694505     10.398263     -3.589189
  H      -2.357740     10.675034     -4.446309
  H      -4.229707      8.812795     -3.502463
  O      -4.984682      8.341238     -3.127542
  H      -4.597995      7.828871     -2.391816
  S      -4.803683     11.855968     -0.821218
  H      -5.026828     11.051284     -1.883260
  H      -3.879714     12.570413     -1.495461
18
Coordinates from ORCA-job neb_115_429_CI_MEP.QMRegion E -1774.350240602174
  H      -3.535995      6.361609     -0.511656
  O      -3.335195      7.039668     -1.212039
  H      -3.187456      7.888197     -0.739895
  H      -0.646593      8.749547     -2.230503
  O      -0.496448      9.585495     -1.725642
  H       0.278258      9.390398     -1.163893
  H      -1.821163      9.603101     -0.668112
  O      -2.655497      9.432815     -0.165861
  H      -3.213129     10.224483     -0.232918
  H      -1.817550     10.305986     -3.072311
  O      -2.600268     10.353017     -3.641858
  H      -2.252382     10.653391     -4.486461
  H      -4.168485      8.722343     -3.548220
  O      -4.936070      8.290473     -3.154457
  H      -4.567226      7.802144     -2.393954
  S      -4.609055     11.967735     -1.050402
  H      -4.386339     11.412585     -2.260536
  H      -3.600705     12.847460     -1.207773
18
Coordinates from ORCA-job neb_115_429_CI_MEP.QMRegion E -1774.350690793177
  H      -3.527298      6.380132     -0.505475
  O      -3.327714      7.057385     -1.206508
  H      -3.194280      7.910338     -0.739792
  H      -0.636523      8.741395     -2.217384
  O      -0.484787      9.582074     -1.721056
  H       0.290362      9.393543     -1.157225
  H      -1.813817      9.610036     -0.663748
  O      -2.655472      9.470074     -0.165198
  H      -3.176721     10.282702     -0.259494
  H      -1.719391     10.292498     -3.102866
  O      -2.486974     10.334678     -3.694748
  H      -2.111704     10.565971     -4.549429
  H      -4.181686      8.768792     -3.541331
  O      -4.938118      8.311772     -3.156159
  H      -4.562134      7.829765     -2.396101
  S      -4.234496     12.167014     -1.369393
  H      -3.703854     11.626881     -2.494251
  H      -3.224084     13.050740     -1.243386
