39
Coordinates from ORCA-job neb_1_121_CI_MEP.QMRegion E -2273.683840108089
  H      -0.155699     -3.494652      3.807923
  O      -0.465917     -2.679778      4.229727
  H       0.196110     -2.493795      4.916952
  H      -2.463546     -3.608969      1.900393
  O      -2.499720     -4.508920      2.298519
  H      -1.569923     -4.815687      2.323379
  H       0.719050     -5.035854      1.925848
  O       0.163723     -5.143237      2.724588
  H       0.329539     -6.073839      2.964328
  H       2.098067     -3.587006      4.258928
  O       2.019156     -4.022672      5.131508
  H       2.535415     -3.443564      5.727957
  H       3.384527     -6.120979      3.136168
  O       3.748641     -5.917921      2.239484
  H       3.021661     -5.576575      1.683899
  H       2.482008     -5.575680      4.979938
  O       2.935094     -6.425190      4.717779
  H       2.456398     -7.179880      5.093278
  H       2.054060     -0.764565      5.293147
  O       1.503698     -1.310201      5.886136
  H       1.521429     -0.900372      6.769231
  H      -2.169538     -2.974319      4.661184
  O      -3.018285     -3.461713      4.730665
  H      -2.967187     -4.053001      3.950016
  H      -0.362223     -8.004917      2.201641
  O       0.466985     -7.949788      2.705366
  H       1.186370     -8.211355      2.099790
  H      -4.057728     -3.752539      7.754192
  O      -3.824636     -2.985774      7.228686
  H      -3.591944     -3.323665      6.328501
  H      -2.579931     -1.578907      7.677106
  O      -2.098886     -0.738112      7.713122
  H      -2.704961     -0.118512      8.134052
  H       3.645136     -8.990479      0.953551
  O       2.955128     -8.439832      1.341677
  H       3.414462     -7.624598      1.627588
  S       1.439533     -9.343389      5.544926
  H       0.817439     -8.995862      4.388212
  H       2.441920     -9.950186      4.875748
39
Coordinates from ORCA-job neb_1_121_CI_MEP.QMRegion E -2273.681235838957
  H      -0.104251     -3.552768      3.783181
  O      -0.411959     -2.732994      4.197579
  H       0.254652     -2.536497      4.877863
  H      -2.431280     -3.647909      1.902885
  O      -2.472403     -4.547715      2.296586
  H      -1.547449     -4.870612      2.313512
  H       0.736756     -5.103684      1.911634
  O       0.178696     -5.232911      2.705880
  H       0.352222     -6.166723      2.930335
  H       2.158466     -3.566901      4.185948
  O       2.117517     -4.033408      5.046533
  H       2.617498     -3.452896      5.655972
  H       3.412322     -6.193630      3.051995
  O       3.769708     -5.942442      2.165641
  H       3.034744     -5.604348      1.619197
  H       2.607093     -5.515443      4.836456
  O       2.985346     -6.424321      4.632426
  H       2.386061     -7.048166      5.064680
  H       2.057021     -0.778078      5.234921
  O       1.517376     -1.322589      5.841459
  H       1.562275     -0.916359      6.723556
  H      -2.112847     -3.000141      4.625898
  O      -2.976277     -3.459168      4.713398
  H      -2.936993     -4.086200      3.962194
  H      -0.315893     -8.114931      2.218683
  O       0.486971     -8.060189      2.760094
  H       1.230151     -8.346243      2.194853
  H      -3.790149     -3.724042      7.789966
  O      -3.713889     -2.961167      7.215052
  H      -3.481797     -3.312905      6.318696
  H      -2.499734     -1.576688      7.599058
  O      -2.036162     -0.725144      7.654848
  H      -2.635291     -0.138229      8.126751
  H       3.614972     -9.097985      0.939919
  O       2.934255     -8.500001      1.269878
  H       3.418352     -7.689901      1.521922
  S       0.404660     -7.878506      6.160020
  H       0.232879     -8.297487      4.884094
  H       0.937590     -9.053454      6.550802
39
Coordinates from ORCA-job neb_1_121_CI_MEP.QMRegion E -2273.679752124701
  H      -0.113027     -3.547307      3.786794
  O      -0.417886     -2.728433      4.206138
  H       0.249691     -2.539246      4.887126
  H      -2.439857     -3.645896      1.920542
  O      -2.479558     -4.545510      2.314378
  H      -1.553482     -4.865483      2.326474
  H       0.733404     -5.096731      1.916011
  O       0.175751     -5.211654      2.712415
  H       0.347764     -6.141843      2.955655
  H       2.158284     -3.549203      4.192532
  O       2.118894     -4.013971      5.054266
  H       2.619184     -3.433250      5.663580
  H       3.396887     -6.163980      3.057239
  O       3.768718     -5.931922      2.169068
  H       3.041201     -5.588439      1.615448
  H       2.583833     -5.489339      4.831253
  O       2.932061     -6.410066      4.614993
  H       2.225067     -6.999277      4.900025
  H       2.060319     -0.772110      5.243340
  O       1.521040     -1.316023      5.850212
  H       1.561433     -0.906435      6.731105
  H      -2.115566     -3.001613      4.652872
  O      -2.979983     -3.458157      4.745715
  H      -2.942166     -4.091741      4.001007
  H      -0.321639     -8.076828      2.268460
  O       0.472014     -8.026483      2.823542
  H       1.217757     -8.307290      2.258640
  H      -3.820321     -3.714198      7.826053
  O      -3.724991     -2.954379      7.249814
  H      -3.486894     -3.311484      6.357415
  H      -2.503041     -1.572266      7.634712
  O      -2.036525     -0.721752      7.676511
  H      -2.631331     -0.126532      8.143588
  H       3.555861     -9.093579      1.004358
  O       2.884190     -8.463617      1.288002
  H       3.385157     -7.662468      1.538189
  S       0.008270     -7.274860      6.189792
  H      -0.123484     -8.119314      5.144630
  H       0.653383     -8.190067      6.941428
39
Coordinates from ORCA-job neb_1_121_CI_MEP.QMRegion E -2273.679333090717
  H      -0.194963     -3.498401      3.804813
  O      -0.486428     -2.677231      4.229278
  H       0.180336     -2.509009      4.915561
  H      -2.510406     -3.604553      1.949883
  O      -2.546007     -4.501238      2.353544
  H      -1.617785     -4.813302      2.352681
  H       0.675600     -5.053179      1.924341
  O       0.110866     -5.133452      2.718575
  H       0.260091     -6.057514      2.996849
  H       2.101036     -3.512123      4.225786
  O       2.042696     -3.961146      5.095437
  H       2.558263     -3.386236      5.697232
  H       3.344021     -6.089412      3.095152
  O       3.736140     -5.908374      2.202249
  H       3.023434     -5.547267      1.637476
  H       2.456741     -5.454189      4.875330
  O       2.786922     -6.375137      4.631923
  H       2.008978     -6.937289      4.682292
  H       2.047733     -0.742340      5.266909
  O       1.512008     -1.287687      5.874416
  H       1.534214     -0.867319      6.752119
  H      -2.179629     -2.966711      4.708641
  O      -3.031546     -3.442826      4.814394
  H      -2.995916     -4.070403      4.065238
  H      -0.402235     -7.978991      2.361034
  O       0.389284     -7.928194      2.921496
  H       1.132482     -8.203496      2.348068
  H      -3.948848     -3.658621      7.897851
  O      -3.786721     -2.911673      7.319796
  H      -3.552231     -3.284805      6.434201
  H      -2.561368     -1.522437      7.705692
  O      -2.074446     -0.683887      7.734058
  H      -2.670472     -0.059794      8.162168
  H       3.378877     -9.051057      1.132797
  O       2.731949     -8.366866      1.331955
  H       3.263867     -7.586183      1.590014
  S      -0.454271     -6.992789      6.300752
  H      -0.459563     -7.911059      5.310818
  H       0.549693     -7.613643      6.957838
39
Coordinates from ORCA-job neb_1_121_CI_MEP.QMRegion E -2273.678866050626
  H      -0.195700     -3.502786      3.798912
  O      -0.486857     -2.681760      4.222803
  H       0.179608     -2.506654      4.907522
  H      -2.503779     -3.609012      1.948195
  O      -2.538454     -4.506685      2.349396
  H      -1.611315     -4.819026      2.348262
  H       0.685344     -5.050091      1.921705
  O       0.127512     -5.143109      2.719866
  H       0.259506     -6.080388      2.963805
  H       2.090801     -3.545093      4.218227
  O       2.043458     -4.001327      5.085720
  H       2.557169     -3.423127      5.686884
  H       3.364965     -6.103877      3.083704
  O       3.740095     -5.914225      2.189016
  H       3.019511     -5.556240      1.631844
  H       2.459943     -5.500477      4.867163
  O       2.838419     -6.407687      4.644505
  H       2.117149     -7.038474      4.682282
  H       2.046828     -0.756328      5.261383
  O       1.510524     -1.304460      5.866662
  H       1.534652     -0.887063      6.745955
  H      -2.186406     -2.968074      4.699867
  O      -3.036418     -3.444451      4.811335
  H      -2.998474     -4.085447      4.074887
  H      -0.408007     -7.990535      2.372869
  O       0.390939     -7.920011      2.921561
  H       1.130437     -8.206313      2.347944
  H      -3.953625     -3.674979      7.892453
  O      -3.788897     -2.925751      7.317860
  H      -3.552816     -3.296651      6.431589
  H      -2.560322     -1.536591      7.702409
  O      -2.074730     -0.696882      7.726377
  H      -2.670392     -0.073205      8.155728
  H       3.362154     -9.078145      1.133607
  O       2.726473     -8.384234      1.335950
  H       3.270647     -7.607001      1.575204
  S      -0.593235     -7.475696      6.493176
  H      -0.212952     -7.831476      5.246855
  H       0.583270     -6.869562      6.755585
39
Coordinates from ORCA-job neb_1_121_CI_MEP.QMRegion E -2273.680587071863
  H      -0.169085     -3.455849      3.787292
  O      -0.467387     -2.645218      4.227755
  H       0.209974     -2.461741      4.900087
  H      -2.504941     -3.586173      1.931575
  O      -2.531197     -4.482021      2.341130
  H      -1.597597     -4.779561      2.342032
  H       0.693102     -4.973197      1.922589
  O       0.141882     -5.081674      2.723244
  H       0.289219     -6.029952      2.934667
  H       2.089238     -3.500375      4.232265
  O       2.032114     -3.936237      5.110016
  H       2.566910     -3.358680      5.695441
  H       3.368180     -6.077611      3.076970
  O       3.748875     -5.871975      2.187817
  H       3.027242     -5.520423      1.628110
  H       2.519642     -5.419484      4.879091
  O       2.891514     -6.323130      4.645947
  H       2.252898     -6.969576      4.967734
  H       2.053118     -0.712548      5.252539
  O       1.526354     -1.257731      5.869610
  H       1.545656     -0.827254      6.742727
  H      -2.167310     -2.910587      4.680978
  O      -3.005806     -3.408941      4.785128
  H      -2.963117     -4.020610      4.020575
  H      -0.386833     -7.916090      2.318492
  O       0.401602     -7.801036      2.872786
  H       1.155442     -8.087064      2.320934
  H      -3.891786     -3.597764      7.871927
  O      -3.749750     -2.852750      7.286796
  H      -3.524744     -3.226431      6.399004
  H      -2.564158     -1.461350      7.674079
  O      -2.065248     -0.631220      7.726920
  H      -2.658804     -0.004431      8.154902
  H       3.418416     -8.990965      1.087038
  O       2.769824     -8.310815      1.295307
  H       3.301473     -7.530486      1.552357
  S       0.118993     -7.285905      6.471591
  H      -0.319335     -6.819738      5.288099
  H       0.514201     -6.060774      6.871476
39
Coordinates from ORCA-job neb_1_121_CI_MEP.QMRegion E -2273.681909288334
  H      -0.114935     -3.472097      3.812290
  O      -0.434778     -2.667474      4.249694
  H       0.239938     -2.452888      4.916382
  H      -2.445598     -3.608544      1.905212
  O      -2.484208     -4.502251      2.317734
  H      -1.552703     -4.806899      2.349412
  H       0.735219     -5.011511      1.937810
  O       0.193335     -5.090292      2.749795
  H       0.356538     -6.018953      3.009865
  H       2.118814     -3.530861      4.256741
  O       2.078987     -3.967658      5.133461
  H       2.604854     -3.382209      5.721588
  H       3.381270     -6.065226      3.140003
  O       3.760677     -5.879395      2.244677
  H       3.036198     -5.552457      1.676200
  H       2.478557     -5.513194      4.928139
  O       2.842110     -6.412260      4.689009
  H       2.108113     -7.030945      4.736466
  H       2.061471     -0.734550      5.302967
  O       1.518954     -1.288812      5.895665
  H       1.515890     -0.872388      6.777386
  H      -2.147770     -2.953910      4.663290
  O      -2.977824     -3.471558      4.734771
  H      -2.929102     -4.026405      3.921675
  H      -0.214807     -7.997968      2.382777
  O       0.611615     -7.848392      2.863093
  H       1.324668     -8.155337      2.271567
  H      -3.850070     -3.682557      7.835868
  O      -3.761433     -2.926868      7.252866
  H      -3.541906     -3.289600      6.363565
  H      -2.550398     -1.533873      7.664387
  O      -2.070438     -0.692042      7.717311
  H      -2.668526     -0.085773      8.167464
  H       3.684197     -8.994487      1.045904
  O       2.992221     -8.388114      1.332842
  H       3.466095     -7.584240      1.622768
  S      -0.645446     -5.742907      6.546353
  H      -1.521411     -5.062635      5.769809
  H       0.332417     -4.850051      6.282058
