30
Coordinates from ORCA-job neb_16_178_CI_MEP.QMRegion E -2059.682492436849
  H      -3.424747      6.383840     -0.584893
  O      -3.308185      7.046577     -1.319309
  H      -3.132030      7.907955     -0.898747
  H      -3.125075      4.867465      1.023460
  O      -3.879357      5.271956      0.547313
  H      -4.310653      5.764822      1.288998
  H      -1.789430      9.645893     -0.812263
  O      -2.618040      9.477219     -0.291926
  H      -3.216385     10.195208     -0.519529
  H      -2.305387      8.719529      1.281913
  O      -2.168071      8.109701      2.031783
  H      -1.386891      7.569492      1.796652
  H      -4.328733      6.301517      3.495515
  O      -4.519864      6.735551      2.639910
  H      -3.703623      7.248280      2.465775
  H      -1.833923      8.940707      3.538816
  O      -1.586413      9.246360      4.438909
  H      -2.427367      9.319985      4.919461
  H      -3.706373      5.244658      5.769892
  O      -3.712281      6.024364      5.181629
  H      -2.777000      6.334120      5.276355
  H      -4.147780      8.833251      6.813623
  O      -4.110292      8.721564      5.859403
  H      -4.130647      7.750346      5.733141
  H      -4.407267      9.101098     -3.286423
  O      -5.050978      8.409766     -3.087678
  H      -4.612788      7.877006     -2.400226
  S      -5.780616      9.908489      2.856548
  H      -5.292533      9.832307      4.112222
  H      -5.648432      8.569820      2.702865
30
Coordinates from ORCA-job neb_16_178_CI_MEP.QMRegion E -2059.680823487103
  H      -3.405941      6.365441     -0.532199
  O      -3.275712      7.027229     -1.265993
  H      -3.093296      7.884003     -0.839285
  H      -3.130203      4.871911      1.073985
  O      -3.891573      5.277750      0.608510
  H      -4.304197      5.782237      1.355163
  H      -1.769313      9.647383     -0.777870
  O      -2.574417      9.457925     -0.229393
  H      -3.196660     10.169043     -0.408157
  H      -2.270006      8.732371      1.341842
  O      -2.141526      8.141017      2.108730
  H      -1.376729      7.579519      1.872033
  H      -4.328217      6.328479      3.541896
  O      -4.531992      6.768982      2.692687
  H      -3.728375      7.299416      2.523939
  H      -1.819094      8.974468      3.604892
  O      -1.580636      9.273560      4.510227
  H      -2.425141      9.315320      4.992267
  H      -3.703925      5.254831      5.804548
  O      -3.717171      6.040527      5.224641
  H      -2.780144      6.347145      5.310151
  H      -4.100387      8.861932      6.839888
  O      -4.105715      8.746349      5.885313
  H      -4.127899      7.774274      5.768682
  H      -4.366521      9.082469     -3.232778
  O      -4.998973      8.374698     -3.054807
  H      -4.568784      7.852092     -2.353947
  S      -5.943810      9.920062      1.922982
  H      -5.574585      9.802587      3.216302
  H      -6.157184      8.590176      1.836821
30
Coordinates from ORCA-job neb_16_178_CI_MEP.QMRegion E -2059.680608771327
  H      -3.425464      6.358603     -0.560164
  O      -3.300525      7.017211     -1.295982
  H      -3.127008      7.879413     -0.876011
  H      -3.135622      4.856331      1.054244
  O      -3.893723      5.263831      0.586338
  H      -4.317229      5.758392      1.330521
  H      -1.790771      9.631633     -0.798514
  O      -2.601025      9.435715     -0.260889
  H      -3.219735     10.153033     -0.429123
  H      -2.294027      8.699834      1.303581
  O      -2.162130      8.104871      2.067902
  H      -1.384380      7.557917      1.838134
  H      -4.349112      6.325550      3.534348
  O      -4.515542      6.758097      2.672083
  H      -3.680549      7.243361      2.505044
  H      -1.853947      8.947404      3.578050
  O      -1.622966      9.252719      4.481917
  H      -2.471161      9.290938      4.958645
  H      -3.714050      5.238182      5.784795
  O      -3.725799      6.023556      5.204318
  H      -2.793126      6.339022      5.299375
  H      -4.095263      8.825421      6.848603
  O      -4.134930      8.729303      5.892550
  H      -4.163760      7.760993      5.759012
  H      -4.389470      9.073433     -3.259575
  O      -5.034237      8.378833     -3.076849
  H      -4.613614      7.846661     -2.378551
  S      -5.918607      9.633675      1.365226
  H      -6.465829     10.184724      2.469007
  H      -5.627349      8.477051      2.011052
30
Coordinates from ORCA-job neb_16_178_CI_MEP.QMRegion E -2059.679325846935
  H      -3.418795      6.392100     -0.570389
  O      -3.294908      7.046448     -1.309139
  H      -3.130389      7.912217     -0.893642
  H      -3.135357      4.882686      1.048680
  O      -3.891702      5.288080      0.575786
  H      -4.310346      5.795212      1.313203
  H      -1.781114      9.655990     -0.807862
  O      -2.599978      9.478804     -0.276648
  H      -3.210676     10.193778     -0.479783
  H      -2.258950      8.741408      1.272223
  O      -2.125653      8.150201      2.038915
  H      -1.355442      7.592799      1.809998
  H      -4.294260      6.362530      3.535597
  O      -4.465413      6.799015      2.676086
  H      -3.624553      7.267630      2.492453
  H      -1.817758      8.974099      3.562030
  O      -1.589639      9.259720      4.472466
  H      -2.442204      9.317433      4.939558
  H      -3.710167      5.254778      5.781480
  O      -3.720401      6.043948      5.207165
  H      -2.786164      6.356030      5.304268
  H      -4.074171      8.881793      6.818557
  O      -4.103118      8.771178      5.863752
  H      -4.142749      7.802132      5.743883
  H      -4.368232      9.101586     -3.286879
  O      -5.017714      8.409073     -3.111332
  H      -4.614719      7.889056     -2.394500
  S      -5.632946      9.760401      1.491814
  H      -6.871679     10.046702      1.940896
  H      -5.497860      8.673138      2.288701
30
Coordinates from ORCA-job neb_16_178_CI_MEP.QMRegion E -2059.679883433851
  H      -3.418893      6.357629     -0.581123
  O      -3.301384      7.019487     -1.315469
  H      -3.129077      7.881819     -0.893093
  H      -3.124739      4.849946      1.032177
  O      -3.879497      5.257527      0.559043
  H      -4.307824      5.750520      1.302578
  H      -1.794334      9.632166     -0.809973
  O      -2.605518      9.422304     -0.278366
  H      -3.238002     10.127492     -0.445974
  H      -2.304355      8.681865      1.273463
  O      -2.173317      8.092937      2.043158
  H      -1.389424      7.551340      1.822819
  H      -4.334729      6.292518      3.505754
  O      -4.520291      6.729911      2.649764
  H      -3.689316      7.217858      2.470975
  H      -1.853045      8.935017      3.556038
  O      -1.622447      9.244120      4.458306
  H      -2.471721      9.283520      4.934071
  H      -3.699450      5.224339      5.766704
  O      -3.709988      6.000663      5.174770
  H      -2.782392      6.327793      5.279402
  H      -4.119440      8.820288      6.805611
  O      -4.125317      8.711256      5.850342
  H      -4.155324      7.742318      5.726301
  H      -4.397204      9.078724     -3.267431
  O      -5.043748      8.388183     -3.074744
  H      -4.609986      7.849680     -2.388429
  S      -5.604269      9.939139      1.964679
  H      -6.839335      9.837856      1.436497
  H      -5.600502      8.648700      2.375909
30
Coordinates from ORCA-job neb_16_178_CI_MEP.QMRegion E -2059.681174139931
  H      -3.421772      6.356334     -0.578407
  O      -3.303759      7.016903     -1.313783
  H      -3.128232      7.879198     -0.892058
  H      -3.132390      4.862653      1.049603
  O      -3.886655      5.265119      0.570278
  H      -4.318799      5.769121      1.303380
  H      -1.794602      9.631764     -0.806457
  O      -2.597701      9.408044     -0.268332
  H      -3.228852     10.124754     -0.385370
  H      -2.298001      8.671511      1.273411
  O      -2.170805      8.083660      2.045638
  H      -1.388146      7.539097      1.826964
  H      -4.365086      6.332852      3.490049
  O      -4.538647      6.778161      2.636531
  H      -3.694641      7.246584      2.460968
  H      -1.848679      8.929392      3.549872
  O      -1.621336      9.242175      4.452177
  H      -2.472042      9.277877      4.925485
  H      -3.700010      5.219824      5.751767
  O      -3.705603      5.991453      5.153675
  H      -2.778733      6.318686      5.261824
  H      -4.105685      8.801251      6.791705
  O      -4.124385      8.697837      5.835840
  H      -4.148601      7.728956      5.707391
  H      -4.401270      9.082107     -3.259674
  O      -5.042312      8.386442     -3.066968
  H      -4.597606      7.843508     -2.390527
  S      -5.751981      9.872602      1.678838
  H      -6.574126      9.332761      0.752122
  H      -5.547486      8.672128      2.275812
30
Coordinates from ORCA-job neb_16_178_CI_MEP.QMRegion E -2059.682167694604
  H      -3.424591      6.348687     -0.559409
  O      -3.295917      7.014265     -1.289574
  H      -3.085779      7.863624     -0.854003
  H      -3.135243      4.876848      1.074792
  O      -3.895497      5.277638      0.602015
  H      -4.312024      5.795353      1.335416
  H      -1.799220      9.650767     -0.800495
  O      -2.584386      9.403067     -0.248631
  H      -3.285303     10.041806     -0.420195
  H      -2.271875      8.710475      1.306675
  O      -2.147148      8.137383      2.090130
  H      -1.378765      7.574385      1.869828
  H      -4.370484      6.397975      3.510494
  O      -4.531431      6.830334      2.648209
  H      -3.694983      7.314609      2.485119
  H      -1.859379      8.983000      3.608129
  O      -1.624403      9.272259      4.515526
  H      -2.467991      9.302076      5.001825
  H      -3.714478      5.252199      5.769436
  O      -3.727058      6.038580      5.191117
  H      -2.794046      6.352623      5.287577
  H      -4.059943      8.805711      6.912997
  O      -4.108264      8.731289      5.955447
  H      -4.151770      7.767067      5.799895
  H      -4.443314      9.083887     -3.219694
  O      -5.048049      8.358275     -3.019954
  H      -4.555439      7.821615     -2.370090
  S      -5.943754      9.442412      0.698954
  H      -6.162306      8.532267     -0.274253
  H      -5.676846      8.485311      1.618921
