36
Coordinates from ORCA-job neb_22_132_CI_MEP.QMRegion E -2202.366249170094
  H      -0.355459      6.868357     -2.292008
  O      -1.107804      7.277909     -2.790084
  H      -1.884424      7.151694     -2.197489
  H      -0.858573      4.459735     -4.054880
  O      -1.597537      5.059863     -4.265607
  H      -1.367364      5.900539     -3.821183
  H       0.647582      3.069047     -2.662157
  O       0.629453      3.432770     -3.578714
  H       0.726508      2.640552     -4.132143
  H       2.236119      5.823152     -1.166911
  O       3.174237      5.531417     -1.042292
  H       3.299384      4.842166     -1.718789
  H       3.408912      3.388908     -3.602233
  O       3.222563      4.349544     -3.473960
  H       2.249433      4.344656     -3.573141
  H      -1.687886      6.117213     -7.161298
  O      -2.053117      5.316226     -6.780167
  H      -1.777817      5.304354     -5.803205
  H       0.819873      2.920126     -7.165809
  O       1.762735      2.629695     -7.197269
  H       1.769999      1.845015     -7.787128
  H       3.515223      2.860120     -6.611343
  O       4.357473      2.582347     -6.216997
  H       4.104304      2.254774     -5.325567
  H       3.769870      7.149006     -1.370921
  O       3.903219      8.115882     -1.486348
  H       4.050126      8.199729     -2.433982
  H      -1.376051      3.694214     -7.027644
  O      -0.846338      2.915811     -6.753805
  H      -1.113745      2.129505     -7.288110
  H       3.934049      6.041742     -4.003581
  O       4.256009      6.939011     -4.209838
  H       5.183451      6.802083     -4.427886
  S       1.326158      6.579602     -6.117404
  H       1.909535      5.447305     -6.559190
  H       2.492840      7.063610     -5.633267
36
Coordinates from ORCA-job neb_22_132_CI_MEP.QMRegion E -2202.363083076430
  H      -0.348410      6.874003     -2.266053
  O      -1.103442      7.277148     -2.768390
  H      -1.879752      7.152946     -2.174208
  H      -0.856760      4.468207     -4.014353
  O      -1.580114      5.080561     -4.243619
  H      -1.361481      5.916747     -3.782309
  H       0.651010      3.079826     -2.643801
  O       0.629914      3.448251     -3.559608
  H       0.724872      2.657666     -4.115521
  H       2.247711      5.831808     -1.154975
  O       3.183980      5.538867     -1.033081
  H       3.311651      4.854639     -1.714772
  H       3.409553      3.389292     -3.586928
  O       3.227746      4.349861     -3.455469
  H       2.254457      4.344598     -3.541994
  H      -1.754337      6.079921     -7.166175
  O      -2.080462      5.279526     -6.750536
  H      -1.788159      5.303576     -5.778434
  H       0.802176      2.909351     -7.143566
  O       1.749582      2.633579     -7.189814
  H       1.759752      1.847013     -7.777216
  H       3.514127      2.863265     -6.592026
  O       4.356962      2.575808     -6.207885
  H       4.108434      2.249237     -5.314180
  H       3.789683      7.160187     -1.355376
  O       3.914038      8.127942     -1.467960
  H       4.104968      8.209384     -2.408528
  H      -1.396399      3.686465     -6.990533
  O      -0.853176      2.909245     -6.735638
  H      -1.124813      2.124275     -7.269338
  H       3.986337      6.078793     -4.002512
  O       4.414901      6.939778     -4.146769
  H       5.346414      6.709716     -4.226001
  S       1.005222      6.644607     -7.037874
  H       1.648352      5.462051     -7.106671
  H       2.150144      7.353929     -6.948300
36
Coordinates from ORCA-job neb_22_132_CI_MEP.QMRegion E -2202.362689859555
  H      -0.353872      6.869996     -2.274723
  O      -1.106926      7.274361     -2.778232
  H      -1.884972      7.149996     -2.186439
  H      -0.867677      4.468768     -4.039151
  O      -1.583646      5.087253     -4.274303
  H      -1.367445      5.918910     -3.804096
  H       0.639986      3.072709     -2.662194
  O       0.615736      3.441302     -3.576939
  H       0.714502      2.652900     -4.135536
  H       2.246914      5.823236     -1.173131
  O       3.182035      5.527131     -1.049185
  H       3.308696      4.848712     -1.737060
  H       3.407900      3.384997     -3.609449
  O       3.219794      4.345183     -3.482105
  H       2.245860      4.330659     -3.556855
  H      -1.779795      6.086029     -7.203523
  O      -2.098206      5.284648     -6.783295
  H      -1.798610      5.310852     -5.815409
  H       0.784068      2.908946     -7.166466
  O       1.732702      2.636973     -7.210466
  H       1.746520      1.850922     -7.798304
  H       3.503520      2.861762     -6.616263
  O       4.344963      2.575739     -6.227189
  H       4.093812      2.249888     -5.334807
  H       3.787294      7.151469     -1.375329
  O       3.916295      8.118592     -1.486971
  H       4.115687      8.195431     -2.426772
  H      -1.413685      3.684322     -7.022453
  O      -0.870465      2.912127     -6.755096
  H      -1.134019      2.122983     -7.287201
  H       3.998890      6.092852     -4.047424
  O       4.474012      6.933662     -4.153589
  H       5.397218      6.660503     -4.169795
  S       0.879184      6.670709     -7.369499
  H       1.534247      5.493235     -7.346801
  H       2.006665      7.387352     -7.548145
36
Coordinates from ORCA-job neb_22_132_CI_MEP.QMRegion E -2202.362745303776
  H      -0.353732      6.867542     -2.271236
  O      -1.106739      7.271640     -2.775578
  H      -1.884828      7.149668     -2.183582
  H      -0.879443      4.469736     -4.036236
  O      -1.587184      5.093979     -4.280407
  H      -1.375282      5.921984     -3.801286
  H       0.635080      3.072023     -2.662023
  O       0.607304      3.442063     -3.576111
  H       0.708107      2.655173     -4.136345
  H       2.250013      5.822089     -1.171126
  O       3.184840      5.525288     -1.049628
  H       3.310873      4.850414     -1.741218
  H       3.404428      3.384812     -3.611323
  O       3.214545      4.344557     -3.485293
  H       2.240548      4.327788     -3.556640
  H      -1.710183      6.042344     -7.235259
  O      -2.101732      5.282548     -6.796047
  H      -1.808440      5.310181     -5.828629
  H       0.774181      2.908748     -7.168531
  O       1.723879      2.639394     -7.213505
  H       1.738772      1.851904     -7.799217
  H       3.502031      2.862251     -6.620441
  O       4.342285      2.574593     -6.230282
  H       4.090145      2.250885     -5.337443
  H       3.789425      7.152902     -1.377185
  O       3.915924      8.120421     -1.486170
  H       4.121129      8.198353     -2.424806
  H      -1.425735      3.689491     -7.019622
  O      -0.878490      2.915797     -6.757594
  H      -1.142199      2.126753     -7.289093
  H       4.010535      6.103805     -4.054382
  O       4.508468      6.933837     -4.131470
  H       5.424975      6.638694     -4.129346
  S       0.828553      6.771453     -7.310946
  H       1.407774      5.555412     -7.372284
  H       1.720036      7.322655     -8.160418
36
Coordinates from ORCA-job neb_22_132_CI_MEP.QMRegion E -2202.362856276458
  H      -0.369406      6.862903     -2.277905
  O      -1.119649      7.267853     -2.783795
  H      -1.899581      7.148427     -2.192954
  H      -0.896097      4.457004     -4.028782
  O      -1.606855      5.078196     -4.272207
  H      -1.398659      5.908019     -3.795435
  H       0.625072      3.070029     -2.667818
  O       0.594193      3.439852     -3.581725
  H       0.696128      2.653697     -4.143035
  H       2.238759      5.823679     -1.176515
  O       3.174845      5.527990     -1.055830
  H       3.297829      4.853278     -1.747978
  H       3.391558      3.381922     -3.612677
  O       3.201562      4.342118     -3.489071
  H       2.227973      4.326972     -3.561906
  H      -1.703572      6.012556     -7.225048
  O      -2.119500      5.262546     -6.789376
  H      -1.827348      5.286450     -5.822150
  H       0.762227      2.903233     -7.171808
  O       1.712650      2.635592     -7.220471
  H       1.726278      1.845826     -7.803446
  H       3.488517      2.853826     -6.627784
  O       4.330444      2.571654     -6.236399
  H       4.079258      2.247023     -5.343820
  H       3.773895      7.157363     -1.389276
  O       3.906089      8.125081     -1.490672
  H       4.118695      8.208077     -2.427070
  H      -1.436182      3.686799     -7.014658
  O      -0.886275      2.910556     -6.761263
  H      -1.152782      2.123580     -7.294503
  H       4.022091      6.086540     -4.035805
  O       4.522642      6.914921     -4.112788
  H       5.438207      6.616977     -4.114517
  S       0.778148      6.831685     -7.467315
  H       1.340839      5.607102     -7.402516
  H       1.271926      7.066000     -8.700016
36
Coordinates from ORCA-job neb_22_132_CI_MEP.QMRegion E -2202.363301499389
  H      -0.380191      6.853674     -2.281766
  O      -1.128400      7.259708     -2.788494
  H      -1.908835      7.143053     -2.197442
  H      -0.928676      4.439478     -4.038414
  O      -1.636531      5.063551     -4.281778
  H      -1.423064      5.892532     -3.807078
  H       0.606980      3.057138     -2.673559
  O       0.570719      3.424296     -3.588260
  H       0.678486      2.637682     -4.148257
  H       2.228601      5.809339     -1.180052
  O       3.163144      5.507256     -1.059057
  H       3.279688      4.834023     -1.753692
  H       3.375782      3.379528     -3.624857
  O       3.171437      4.336733     -3.502643
  H       2.197438      4.306525     -3.572581
  H      -1.654623      5.986472     -7.232317
  O      -2.122603      5.259215     -6.807794
  H      -1.840266      5.268692     -5.838235
  H       0.727751      2.889626     -7.177269
  O       1.681148      2.630527     -7.229594
  H       1.700397      1.838891     -7.809998
  H       3.464137      2.838220     -6.640475
  O       4.309415      2.568171     -6.247150
  H       4.061537      2.245282     -5.353295
  H       3.757673      7.137500     -1.393804
  O       3.896466      8.104295     -1.496053
  H       4.108407      8.184096     -2.432926
  H      -1.467583      3.682255     -7.023855
  O      -0.915274      2.906200     -6.770654
  H      -1.179589      2.116398     -7.300423
  H       4.015775      6.066008     -4.047510
  O       4.538836      6.881818     -4.108177
  H       5.446426      6.561852     -4.068659
  S       0.728594      6.822013     -7.750258
  H       1.265586      5.603044     -7.534951
  H       0.798602      6.675738     -9.085956
36
Coordinates from ORCA-job neb_22_132_CI_MEP.QMRegion E -2202.363376806732
  H      -0.360867      6.887812     -2.243414
  O      -1.112343      7.292520     -2.751033
  H      -1.893198      7.176416     -2.159395
  H      -0.891974      4.492903     -3.956959
  O      -1.604716      5.112344     -4.200536
  H      -1.390512      5.945035     -3.729430
  H       0.633271      3.105153     -2.624533
  O       0.603154      3.487765     -3.534793
  H       0.700482      2.706810     -4.102848
  H       2.260994      5.871682     -1.149412
  O       3.202357      5.594039     -1.041129
  H       3.328903      4.918747     -1.733115
  H       3.399364      3.396558     -3.563216
  O       3.227635      4.358976     -3.435038
  H       2.254075      4.363303     -3.506658
  H      -1.624430      5.969262     -7.206031
  O      -2.080893      5.277195     -6.713324
  H      -1.793738      5.323188     -5.744471
  H       0.751711      2.918371     -7.120108
  O       1.700604      2.652886     -7.195211
  H       1.705688      1.862022     -7.775180
  H       3.498206      2.883440     -6.592174
  O       4.337664      2.581942     -6.212301
  H       4.089107      2.260278     -5.317270
  H       3.806902      7.219718     -1.375539
  O       3.928638      8.189913     -1.468099
  H       4.224979      8.279157     -2.380112
  H      -1.462907      3.703057     -6.931216
  O      -0.897753      2.917748     -6.731749
  H      -1.177751      2.135437     -7.262447
  H       4.168642      6.155806     -3.981038
  O       4.781364      6.905827     -3.954680
  H       5.631980      6.481229     -3.793939
  S      -0.083391      6.201896     -9.164584
  H       0.763732      5.396285     -8.489904
  H      -0.838159      5.153600     -9.556533
