21
Coordinates from ORCA-job neb_23_294_CI_MEP.QMRegion E -1845.696188353123
  H      -5.164598      5.777632     -5.527041
  O      -4.560068      5.008791     -5.627456
  H      -3.763570      5.303667     -6.107185
  H      -5.496303      3.427640     -5.525835
  O      -6.011262      2.740322     -5.070519
  H      -5.336110      2.174792     -4.635052
  H      -1.807184      6.242677     -6.999099
  O      -2.100242      5.385129     -6.679175
  H      -1.799314      5.319396     -5.717664
  H       0.926844      3.024340     -7.156512
  O       1.831914      2.655089     -7.191645
  H       1.798881      1.888331     -7.794027
  H      -1.332306      3.744383     -6.981112
  O      -0.782877      2.998446     -6.695023
  H      -1.000574      2.187442     -7.221472
  H      -0.107348      0.401298     -8.152673
  O      -1.011027      0.630308     -7.874396
  H      -1.156023      0.108572     -7.062447
  S      -4.165180      5.381681     -9.547191
  H      -3.215157      4.474936     -9.241335
  H      -4.786466      5.184555     -8.366119
21
Coordinates from ORCA-job neb_23_294_CI_MEP.QMRegion E -1845.695697249842
  H      -5.158812      5.775117     -5.524905
  O      -4.547855      5.011127     -5.619781
  H      -3.754027      5.313456     -6.099014
  H      -5.490023      3.433239     -5.517970
  O      -6.008498      2.741956     -5.072317
  H      -5.335937      2.175548     -4.633730
  H      -1.777100      6.258349     -6.986777
  O      -2.082902      5.402257     -6.675006
  H      -1.788781      5.328413     -5.712573
  H       0.932090      3.023013     -7.153097
  O       1.835195      2.649572     -7.190619
  H       1.798835      1.884820     -7.795472
  H      -1.319011      3.753486     -6.971914
  O      -0.775489      3.001775     -6.688428
  H      -0.995785      2.193532     -7.217146
  H      -0.102800      0.396728     -8.149584
  O      -1.005907      0.629857     -7.872452
  H      -1.155215      0.105875     -7.062720
  S      -3.914594      5.002721     -9.706629
  H      -3.047694      4.027276     -9.364485
  H      -4.644588      4.803905     -8.589815
21
Coordinates from ORCA-job neb_23_294_CI_MEP.QMRegion E -1845.695660912699
  H      -5.157031      5.771062     -5.529953
  O      -4.544710      5.007772     -5.618731
  H      -3.758175      5.305350     -6.112207
  H      -5.489563      3.437827     -5.520508
  O      -6.010912      2.746187     -5.077591
  H      -5.340585      2.177773     -4.639108
  H      -1.748465      6.242539     -6.993696
  O      -2.079728      5.398416     -6.675809
  H      -1.792265      5.327260     -5.711331
  H       0.925685      3.012312     -7.153404
  O       1.829812      2.640806     -7.188581
  H       1.794832      1.871550     -7.788566
  H      -1.325518      3.753353     -6.975930
  O      -0.782932      3.000736     -6.690143
  H      -1.004774      2.191893     -7.215625
  H      -0.118007      0.392831     -8.151041
  O      -1.021134      0.626167     -7.874904
  H      -1.169321      0.105205     -7.062667
  S      -3.675953      4.621575     -9.833029
  H      -2.889768      3.588648     -9.463920
  H      -4.476888      4.455513     -8.760155
21
Coordinates from ORCA-job neb_23_294_CI_MEP.QMRegion E -1845.695837880824
  H      -5.142301      5.769195     -5.534462
  O      -4.531802      5.004493     -5.617253
  H      -3.747171      5.294757     -6.117513
  H      -5.482703      3.440075     -5.522159
  O      -6.005779      2.747463     -5.082243
  H      -5.336624      2.178969     -4.642079
  H      -1.705400      6.211460     -7.005370
  O      -2.063903      5.381422     -6.680334
  H      -1.781737      5.313319     -5.713889
  H       0.930272      3.001827     -7.156687
  O       1.836028      2.633690     -7.187184
  H       1.805718      1.861552     -7.784001
  H      -1.318778      3.740189     -6.986815
  O      -0.777514      2.988195     -6.694591
  H      -0.998635      2.178259     -7.218007
  H      -0.118744      0.385829     -8.155852
  O      -1.023369      0.616219     -7.881963
  H      -1.169726      0.099335     -7.066646
  S      -3.453957      4.316636     -9.897997
  H      -2.746650      3.232480     -9.516065
  H      -4.309134      4.183912     -8.862904
21
Coordinates from ORCA-job neb_23_294_CI_MEP.QMRegion E -1845.695709752596
  H      -5.132259      5.750357     -5.539338
  O      -4.515866      4.990619     -5.612312
  H      -3.734083      5.281323     -6.116911
  H      -5.463041      3.415414     -5.524650
  O      -5.992185      2.730975     -5.080350
  H      -5.325400      2.155634     -4.643382
  H      -1.696116      6.232262     -6.991923
  O      -2.040010      5.389033     -6.685282
  H      -1.767939      5.315760     -5.716966
  H       0.953875      2.998834     -7.163982
  O       1.857490      2.627526     -7.197176
  H       1.823794      1.855423     -7.793672
  H      -1.286401      3.729040     -6.998449
  O      -0.752038      2.979899     -6.688382
  H      -0.962682      2.168113     -7.212096
  H      -0.077471      0.365849     -8.155219
  O      -0.983628      0.597966     -7.884754
  H      -1.135734      0.079163     -7.072189
  S      -3.239752      4.004881     -9.941638
  H      -2.589689      2.887990     -9.552109
  H      -4.188617      3.845453     -8.995420
21
Coordinates from ORCA-job neb_23_294_CI_MEP.QMRegion E -1845.696039460485
  H      -5.120201      5.736098     -5.544837
  O      -4.501981      4.978374     -5.612158
  H      -3.721816      5.267895     -6.119875
  H      -5.449650      3.400477     -5.529765
  O      -5.981504      2.719742     -5.083709
  H      -5.314812      2.142064     -4.648632
  H      -1.673134      6.227992     -6.989622
  O      -2.022625      5.383664     -6.692505
  H      -1.756797      5.305344     -5.723317
  H       0.964466      2.988375     -7.169467
  O       1.867939      2.617247     -7.199771
  H       1.835765      1.844842     -7.796197
  H      -1.271190      3.713626     -7.014186
  O      -0.741341      2.967061     -6.690870
  H      -0.947212      2.155611     -7.215201
  H      -0.058577      0.348707     -8.157675
  O      -0.967449      0.577876     -7.892292
  H      -1.120860      0.063567     -7.077270
  S      -3.004682      3.679449     -9.970435
  H      -2.422545      2.532061     -9.563940
  H      -4.026740      3.529877     -9.102425
21
Coordinates from ORCA-job neb_23_294_CI_MEP.QMRegion E -1845.698232005825
  H      -5.156185      5.777982     -5.529819
  O      -4.529354      5.026126     -5.612446
  H      -3.763474      5.335423     -6.127766
  H      -5.474953      3.453949     -5.519648
  O      -5.996069      2.758781     -5.080210
  H      -5.325209      2.194601     -4.637538
  H      -1.698905      6.320760     -6.979160
  O      -2.062785      5.477283     -6.697191
  H      -1.787988      5.367872     -5.735969
  H       0.925247      3.053922     -7.160941
  O       1.825466      2.670899     -7.189478
  H       1.791741      1.917231     -7.805608
  H      -1.326225      3.780504     -7.034458
  O      -0.792575      3.041605     -6.701585
  H      -0.995243      2.240005     -7.234828
  H      -0.059874      0.389064     -8.134481
  O      -0.971129      0.616613     -7.876044
  H      -1.136214      0.105791     -7.060858
  S      -2.486808      2.902527    -10.025834
  H      -2.020596      1.749637     -9.498651
  H      -3.643015      2.802408     -9.337601
