21
Coordinates from ORCA-job neb_201_477_CI_MEP.QMRegion E -1845.683704228673
  H      -9.081512     -1.827634     -2.289914
  O      -8.500812     -1.552565     -1.556564
  H      -8.509340     -2.262512     -0.874540
  H      -7.781196     -3.662942      0.961778
  O      -8.474358     -3.555383      0.281293
  H      -8.338192     -4.305535     -0.323504
  H      -6.831117     -5.208465     -1.471140
  O      -7.744101     -5.489514     -1.733284
  H      -7.816348     -5.080854     -2.626182
  H      -6.949049     -3.383065     -3.580723
  O      -7.547953     -4.021870     -4.033608
  H      -7.001253     -4.444153     -4.736791
  H      -9.020110     -2.986374     -4.175056
  O      -9.755871     -2.408427     -3.877576
  H      -9.853495     -1.740726     -4.563810
  H      -7.598975     -8.594574     -1.472156
  O      -6.920784     -8.061602     -1.895585
  H      -7.292847     -7.147412     -1.899302
  S     -11.477480     -5.263200     -2.438096
  H     -11.114890     -4.153686     -3.116592
  H     -10.304081     -5.303151     -1.776739
21
Coordinates from ORCA-job neb_201_477_CI_MEP.QMRegion E -1845.682399300123
  H      -9.033500     -1.818638     -2.353111
  O      -8.495499     -1.556151     -1.581110
  H      -8.512573     -2.279508     -0.916353
  H      -7.792956     -3.677589      0.944167
  O      -8.477180     -3.584974      0.253000
  H      -8.299792     -4.319218     -0.362651
  H      -6.821643     -5.216785     -1.504899
  O      -7.740289     -5.489563     -1.753869
  H      -7.823515     -5.084485     -2.647220
  H      -6.933152     -3.405971     -3.613803
  O      -7.537908     -4.035865     -4.067696
  H      -6.989626     -4.467023     -4.766240
  H      -8.940404     -2.888763     -4.283124
  O      -9.626658     -2.245509     -4.007157
  H      -9.582243     -1.532972     -4.653465
  H      -7.634527     -8.577122     -1.379311
  O      -6.964893     -8.081145     -1.858229
  H      -7.320486     -7.160978     -1.891568
  S     -11.774856     -5.189580     -1.653849
  H     -11.506351     -4.195896     -2.525252
  H     -10.551646     -5.102872     -1.095112
21
Coordinates from ORCA-job neb_201_477_CI_MEP.QMRegion E -1845.682354084178
  H      -9.032646     -1.803035     -2.343996
  O      -8.500372     -1.548649     -1.564331
  H      -8.529768     -2.271778     -0.900470
  H      -7.801889     -3.680686      0.953437
  O      -8.485101     -3.593295      0.260424
  H      -8.290741     -4.318554     -0.363758
  H      -6.824923     -5.210032     -1.482315
  O      -7.749434     -5.475394     -1.717359
  H      -7.842111     -5.070756     -2.609701
  H      -6.944716     -3.397163     -3.580892
  O      -7.548289     -4.027782     -4.037142
  H      -6.998968     -4.456899     -4.734044
  H      -8.926150     -2.838668     -4.281111
  O      -9.584045     -2.162643     -4.017370
  H      -9.457343     -1.431884     -4.632103
  H      -7.660664     -8.554488     -1.295856
  O      -7.000337     -8.075696     -1.804394
  H      -7.344715     -7.151695     -1.839891
  S     -11.881831     -5.136836     -1.270804
  H     -11.655844     -4.198803     -2.213066
  H     -10.670555     -4.945724     -0.710902
21
Coordinates from ORCA-job neb_201_477_CI_MEP.QMRegion E -1845.682429698414
  H      -9.028759     -1.786324     -2.328215
  O      -8.501710     -1.541916     -1.541605
  H      -8.536625     -2.270447     -0.884555
  H      -7.820111     -3.679939      0.971583
  O      -8.506166     -3.595172      0.280840
  H      -8.306539     -4.316885     -0.347512
  H      -6.829851     -5.199536     -1.461646
  O      -7.757534     -5.461146     -1.688295
  H      -7.854313     -5.062403     -2.582403
  H      -6.949208     -3.396973     -3.563286
  O      -7.555582     -4.024157     -4.020628
  H      -7.006951     -4.454585     -4.716180
  H      -8.909644     -2.789996     -4.279108
  O      -9.544684     -2.091553     -4.020419
  H      -9.367031     -1.354216     -4.614771
  H      -7.680402     -8.532054     -1.218260
  O      -7.032052     -8.067622     -1.754877
  H      -7.369471     -7.141349     -1.796056
  S     -11.944712     -5.094447     -0.942753
  H     -11.772830     -4.200811     -1.937909
  H     -10.752665     -4.791353     -0.389817
21
Coordinates from ORCA-job neb_201_477_CI_MEP.QMRegion E -1845.682610734596
  H      -9.004622     -1.777545     -2.364758
  O      -8.487935     -1.562013     -1.563397
  H      -8.547819     -2.294576     -0.915527
  H      -7.851722     -3.692523      0.966602
  O      -8.553328     -3.613954      0.291028
  H      -8.359416     -4.333849     -0.341720
  H      -6.839981     -5.194759     -1.483576
  O      -7.770921     -5.450057     -1.700757
  H      -7.871215     -5.065816     -2.600330
  H      -6.936859     -3.427481     -3.605389
  O      -7.550113     -4.043716     -4.064245
  H      -7.001235     -4.479905     -4.758405
  H      -8.826601     -2.687401     -4.373736
  O      -9.414091     -1.950356     -4.116475
  H      -9.157931     -1.208534     -4.676528
  H      -7.700912     -8.500650     -1.128927
  O      -7.080600     -8.073445     -1.726676
  H      -7.404009     -7.143158     -1.781949
  S     -12.072308     -4.982916     -0.227916
  H     -12.062165     -4.252374     -1.360608
  H     -10.833295     -4.573699      0.116571
21
Coordinates from ORCA-job neb_201_477_CI_MEP.QMRegion E -1845.682385874400
  H      -9.019396     -1.747488     -2.296278
  O      -8.487936     -1.542800     -1.502672
  H      -8.563236     -2.267760     -0.847871
  H      -7.868566     -3.663504      1.037053
  O      -8.579101     -3.586742      0.369360
  H      -8.384315     -4.304722     -0.265514
  H      -6.854599     -5.167708     -1.418557
  O      -7.789767     -5.416326     -1.626057
  H      -7.890721     -5.037444     -2.527437
  H      -6.947758     -3.407394     -3.543725
  O      -7.560563     -4.024714     -4.005161
  H      -7.012587     -4.456970     -4.698748
  H      -8.827736     -2.639740     -4.314830
  O      -9.406561     -1.896516     -4.057342
  H      -9.141530     -1.156448     -4.615859
  H      -7.716139     -8.464995     -1.041050
  O      -7.108863     -8.045450     -1.657353
  H      -7.424168     -7.112341     -1.706747
  S     -12.106837     -4.931339     -0.042318
  H     -12.124405     -4.232393     -1.195829
  H     -10.857205     -4.517757      0.259851
21
Coordinates from ORCA-job neb_201_477_CI_MEP.QMRegion E -1845.682435664030
  H      -9.008503     -1.732782     -2.303734
  O      -8.495986     -1.547630     -1.493561
  H      -8.595695     -2.279333     -0.851328
  H      -7.911525     -3.674124      1.042309
  O      -8.634123     -3.601395      0.388360
  H      -8.447035     -4.321718     -0.247045
  H      -6.870602     -5.154527     -1.404186
  O      -7.805892     -5.401828     -1.610736
  H      -7.906104     -5.027759     -2.514069
  H      -6.950874     -3.408823     -3.535862
  O      -7.564911     -4.021386     -4.001303
  H      -7.014802     -4.455901     -4.691191
  H      -8.768339     -2.552514     -4.356805
  O      -9.303410     -1.779722     -4.097140
  H      -8.966511     -1.040546     -4.618232
  H      -7.736464     -8.432273     -0.950198
  O      -7.148080     -8.040507     -1.602265
  H      -7.452446     -7.105202     -1.668184
  S     -12.163012     -4.812850      0.515833
  H     -12.306141     -4.262870     -0.707473
  H     -10.914119     -4.316401      0.658550
