39
Coordinates from ORCA-job neb_87_154_CI_MEP.QMRegion E -2273.713132949162
  H      -4.890824      2.515221      1.315389
  O      -4.221690      2.123625      1.924886
  H      -3.397261      2.092301      1.377579
  H      -3.113079      5.043831      1.080215
  O      -3.925592      5.379182      0.642349
  H      -4.302520      5.940747      1.365155
  H      -4.353527      2.757482      3.529939
  O      -4.380440      2.920507      4.500778
  H      -4.426622      2.020737      4.890769
  H      -5.034937      4.145799      0.007049
  O      -5.500605      3.291007     -0.069318
  H      -6.421277      3.407563     -0.395888
  H      -7.644879      3.855736     -2.046382
  O      -7.914014      3.286478     -1.290618
  H      -7.793597      2.372897     -1.656527
  H      -6.275513     -0.161861      1.132218
  O      -6.699932     -0.190799      0.249361
  H      -7.553030     -0.610584      0.370473
  H      -9.042103     -1.817048     -2.293176
  O      -8.505984     -1.590565     -1.504265
  H      -8.597494     -2.336103     -0.865425
  H      -4.288158      6.494079      3.574277
  O      -4.538806      6.915109      2.727466
  H      -3.782076      7.504213      2.541258
  H      -7.855165      0.097263     -1.996889
  O      -7.407560      0.850823     -2.416446
  H      -7.625855      0.810959     -3.372988
  H      -5.604644      3.863017      5.354842
  O      -6.262896      4.254593      5.970670
  H      -5.915921      5.124998      6.186224
  H     -10.018409      3.047707     -4.993479
  O     -10.237727      2.137953     -4.745657
  H     -10.407450      2.242469     -3.786662
  H     -10.489134      4.100422     -2.889976
  O     -10.602207      3.364700     -2.266914
  H      -9.757799      3.357737     -1.776925
  S      -7.652071      4.659525      2.635041
  H      -7.928321      4.837183      1.325610
  H      -6.852442      5.745464      2.687145
39
Coordinates from ORCA-job neb_87_154_CI_MEP.QMRegion E -2273.712579420786
  H      -4.887902      2.507101      1.324775
  O      -4.218271      2.119246      1.936798
  H      -3.394373      2.087195      1.389514
  H      -3.108284      5.041312      1.083293
  O      -3.921027      5.378119      0.647224
  H      -4.296645      5.938514      1.375649
  H      -4.352831      2.745788      3.540304
  O      -4.389619      2.916571      4.509599
  H      -4.439053      2.018270      4.903545
  H      -5.009767      4.145660      0.028540
  O      -5.482943      3.293231     -0.051945
  H      -6.402351      3.419743     -0.372471
  H      -7.625411      3.881034     -2.035671
  O      -7.901633      3.303943     -1.287350
  H      -7.793909      2.395238     -1.670297
  H      -6.290126     -0.155915      1.132478
  O      -6.706021     -0.185135      0.246227
  H      -7.565380     -0.594046      0.360661
  H      -9.048438     -1.798198     -2.301010
  O      -8.513725     -1.575456     -1.509527
  H      -8.612171     -2.321079     -0.873078
  H      -4.296128      6.484803      3.573241
  O      -4.523856      6.907632      2.721850
  H      -3.754726      7.484175      2.548505
  H      -7.863932      0.123073     -2.000609
  O      -7.407551      0.872057     -2.418460
  H      -7.621685      0.830038     -3.376137
  H      -5.626923      3.858906      5.353754
  O      -6.288060      4.248563      5.967763
  H      -5.943680      5.121269      6.178980
  H      -9.969692      3.094962     -5.021406
  O     -10.206196      2.192146     -4.763497
  H     -10.378918      2.311467     -3.807038
  H     -10.455649      4.154399     -2.910384
  O     -10.571787      3.428793     -2.275027
  H      -9.720378      3.412705     -1.797487
  S      -8.346915      3.755068      2.443429
  H      -8.569961      4.022543      1.140064
  H      -8.035641      5.035632      2.734862
39
Coordinates from ORCA-job neb_87_154_CI_MEP.QMRegion E -2273.712232705454
  H      -4.890912      2.495274      1.336343
  O      -4.215977      2.115206      1.947225
  H      -3.393793      2.084941      1.397951
  H      -3.116707      5.029689      1.079194
  O      -3.929461      5.366044      0.643458
  H      -4.303528      5.925440      1.374253
  H      -4.356058      2.741723      3.553040
  O      -4.393548      2.914558      4.521469
  H      -4.440713      2.015998      4.915893
  H      -5.032967      4.129957      0.043852
  O      -5.505300      3.276218     -0.030970
  H      -6.422752      3.400853     -0.356820
  H      -7.635431      3.867944     -2.036635
  O      -7.915570      3.284791     -1.294856
  H      -7.803445      2.376802     -1.680075
  H      -6.299941     -0.167266      1.148871
  O      -6.725652     -0.198879      0.267103
  H      -7.578985     -0.616888      0.393509
  H      -9.052882     -1.806092     -2.296367
  O      -8.516428     -1.581239     -1.507252
  H      -8.612976     -2.325070     -0.868057
  H      -4.297698      6.473300      3.574674
  O      -4.519213      6.893617      2.720475
  H      -3.749180      7.469407      2.550323
  H      -7.865889      0.107825     -1.987923
  O      -7.411546      0.856747     -2.409822
  H      -7.627304      0.813754     -3.366711
  H      -5.649978      3.842320      5.354583
  O      -6.315090      4.226857      5.967535
  H      -5.984586      5.107433      6.167427
  H      -9.984032      3.091703     -4.993220
  O     -10.215046      2.183916     -4.747366
  H     -10.397130      2.291183     -3.791897
  H     -10.475231      4.149806     -2.896433
  O     -10.594817      3.427890     -2.257818
  H      -9.737485      3.400940     -1.791561
  S      -8.634923      3.152033      2.293378
  H      -8.801603      3.591778      1.029534
  H      -8.889659      4.360533      2.833217
39
Coordinates from ORCA-job neb_87_154_CI_MEP.QMRegion E -2273.712018131237
  H      -4.885625      2.487831      1.336167
  O      -4.211855      2.110489      1.948984
  H      -3.389179      2.079316      1.400645
  H      -3.117845      5.022524      1.076360
  O      -3.931106      5.357332      0.640608
  H      -4.304950      5.915517      1.373546
  H      -4.351507      2.739276      3.556488
  O      -4.391099      2.913133      4.523988
  H      -4.437800      2.015164      4.919627
  H      -5.037826      4.122810      0.054000
  O      -5.514070      3.270267     -0.021961
  H      -6.423638      3.397174     -0.369158
  H      -7.633846      3.859748     -2.041679
  O      -7.910848      3.271436     -1.302492
  H      -7.799718      2.363470     -1.690295
  H      -6.295586     -0.170352      1.152711
  O      -6.721051     -0.197330      0.270417
  H      -7.583974     -0.593717      0.400920
  H      -9.052605     -1.811540     -2.290538
  O      -8.514821     -1.582980     -1.503861
  H      -8.607757     -2.324850     -0.861076
  H      -4.297988      6.464084      3.574552
  O      -4.513961      6.881538      2.717557
  H      -3.744570      7.458831      2.551028
  H      -7.865168      0.099512     -1.984862
  O      -7.411934      0.848479     -2.408856
  H      -7.628465      0.804948     -3.365514
  H      -5.655479      3.839472      5.358036
  O      -6.317159      4.219025      5.976469
  H      -5.994545      5.103702      6.170033
  H      -9.986513      3.092919     -4.975299
  O     -10.215419      2.182896     -4.735221
  H     -10.399536      2.283459     -3.779994
  H     -10.478857      4.152477     -2.884345
  O     -10.597016      3.433618     -2.242058
  H      -9.734254      3.400526     -1.786490
  S      -8.646049      3.009120      2.206500
  H      -8.792100      3.358494      0.912480
  H      -9.740906      3.695722      2.594263
39
Coordinates from ORCA-job neb_87_154_CI_MEP.QMRegion E -2273.711999513754
  H      -4.885276      2.479727      1.327239
  O      -4.211070      2.107834      1.942393
  H      -3.387321      2.075664      1.395220
  H      -3.120786      5.016413      1.070896
  O      -3.933977      5.352317      0.636228
  H      -4.304982      5.911483      1.370154
  H      -4.344960      2.730597      3.548652
  O      -4.390141      2.908098      4.515289
  H      -4.439246      2.011836      4.914607
  H      -5.050265      4.119859      0.047382
  O      -5.528935      3.267897     -0.016757
  H      -6.432052      3.387257     -0.386486
  H      -7.633876      3.858114     -2.048134
  O      -7.908567      3.270310     -1.306892
  H      -7.799799      2.360918     -1.693473
  H      -6.292554     -0.160156      1.141214
  O      -6.707843     -0.191575      0.254609
  H      -7.583858     -0.558830      0.382413
  H      -9.054143     -1.813456     -2.289447
  O      -8.516281     -1.582401     -1.503565
  H      -8.606132     -2.323704     -0.859283
  H      -4.297740      6.460211      3.572310
  O      -4.513068      6.874866      2.713771
  H      -3.745252      7.454366      2.547764
  H      -7.865798      0.098425     -1.991316
  O      -7.414326      0.849295     -2.413873
  H      -7.630450      0.805557     -3.371021
  H      -5.646250      3.842245      5.358899
  O      -6.308824      4.219166      5.976977
  H      -5.991329      5.105569      6.170662
  H      -9.987402      3.090591     -4.983608
  O     -10.216450      2.180855     -4.742615
  H     -10.399592      2.281682     -3.787222
  H     -10.483401      4.145873     -2.885390
  O     -10.596496      3.423629     -2.245894
  H      -9.734041      3.396283     -1.789620
  S      -8.925124      2.923362      2.179428
  H      -8.726112      3.325834      0.907724
  H     -10.265860      2.936373      2.039466
39
Coordinates from ORCA-job neb_87_154_CI_MEP.QMRegion E -2273.712710725770
  H      -4.894701      2.469263      1.317568
  O      -4.216213      2.106508      1.933443
  H      -3.392353      2.073658      1.386067
  H      -3.127706      4.995978      1.055192
  O      -3.940280      5.332767      0.621011
  H      -4.310494      5.888069      1.357613
  H      -4.345737      2.719016      3.539873
  O      -4.392400      2.898164      4.506444
  H      -4.440076      2.002565      4.908200
  H      -5.083094      4.105670      0.033233
  O      -5.559813      3.252686     -0.016728
  H      -6.461017      3.360112     -0.396242
  H      -7.647166      3.831070     -2.065902
  O      -7.925292      3.234772     -1.333101
  H      -7.805367      2.326579     -1.722930
  H      -6.297628     -0.161401      1.138030
  O      -6.706477     -0.193585      0.249232
  H      -7.598972     -0.518132      0.379721
  H      -9.060711     -1.825186     -2.287812
  O      -8.522405     -1.588602     -1.504346
  H      -8.607014     -2.326489     -0.855025
  H      -4.296136      6.442321      3.566107
  O      -4.512037      6.850623      2.704588
  H      -3.747750      7.434579      2.537915
  H      -7.869363      0.073214     -2.000664
  O      -7.414644      0.822847     -2.423308
  H      -7.633224      0.782861     -3.380329
  H      -5.654239      3.813264      5.347464
  O      -6.321675      4.193040      5.959273
  H      -6.010955      5.084366      6.140848
  H     -10.003705      3.069673     -5.001992
  O     -10.231458      2.159492     -4.762262
  H     -10.418906      2.259405     -3.807098
  H     -10.505007      4.113846     -2.893792
  O     -10.611019      3.380486     -2.265907
  H      -9.744543      3.351086     -1.816400
  S      -9.252745      2.351449      1.933722
  H      -8.867034      3.031130      0.833677
  H     -10.514998      2.213754      1.482235
39
Coordinates from ORCA-job neb_87_154_CI_MEP.QMRegion E -2273.715672390821
  H      -4.876902      2.488594      1.332185
  O      -4.207277      2.117251      1.954389
  H      -3.382541      2.081657      1.409074
  H      -3.121053      5.029017      1.075390
  O      -3.933487      5.366292      0.640271
  H      -4.302921      5.933127      1.367890
  H      -4.345649      2.751997      3.559129
  O      -4.395381      2.928412      4.526133
  H      -4.445832      2.031752      4.923907
  H      -5.057910      4.128746      0.050125
  O      -5.525647      3.271388     -0.005043
  H      -6.436310      3.377603     -0.361759
  H      -7.619668      3.831905     -2.045251
  O      -7.894626      3.240906     -1.306830
  H      -7.777517      2.331858     -1.694539
  H      -6.261822     -0.130759      1.143510
  O      -6.681606     -0.136064      0.260013
  H      -7.623829     -0.241279      0.423371
  H      -9.055493     -1.841644     -2.260607
  O      -8.515590     -1.574745     -1.490518
  H      -8.582242     -2.291968     -0.814310
  H      -4.299551      6.491025      3.563682
  O      -4.519912      6.908144      2.708285
  H      -3.748410      7.481697      2.535831
  H      -7.861815      0.064053     -1.983711
  O      -7.420318      0.822792     -2.407760
  H      -7.640641      0.781775     -3.363245
  H      -5.617525      3.920664      5.381685
  O      -6.288627      4.284448      5.997422
  H      -5.972784      5.164725      6.220715
  H     -10.009166      3.075531     -4.947372
  O     -10.224969      2.164430     -4.699152
  H     -10.382675      2.266058     -3.739550
  H     -10.490260      4.137878     -2.857102
  O     -10.565978      3.421884     -2.205725
  H      -9.684596      3.414927     -1.782481
  S      -9.817331      1.082473      1.114135
  H      -9.414452      2.228711      0.524251
  H     -10.560390      0.725713      0.049185
