30
Coordinates from ORCA-job neb_18_66_CI_MEP.QMRegion E -2059.684309481371
  H       4.354911     -2.495979      5.658328
  O       4.081599     -3.171420      6.318080
  H       4.446037     -4.012576      5.962941
  H       4.920373     -2.153293      3.576390
  O       4.937820     -1.484151      4.292302
  H       4.132170     -0.916312      4.136008
  H       1.992266     -0.905841      5.279743
  O       1.429565     -1.456715      5.851703
  H       1.440586     -1.064419      6.739451
  H       5.698659     -5.560030      4.570946
  O       5.149835     -5.522928      5.390320
  H       4.377870     -6.085250      5.222064
  H       4.352394     -0.363657      7.767622
  O       4.040321      0.154241      7.012250
  H       4.834417      0.586764      6.655902
  H       7.480922     -2.560605      4.279788
  O       7.688863     -2.608186      3.334927
  H       7.158512     -3.366816      3.036211
  H       6.756422     -5.974048      2.601267
  O       6.853491     -5.315577      3.321593
  H       7.783438     -5.370350      3.635060
  H       7.234743     -3.194179      7.031774
  O       7.365662     -3.594875      6.157824
  H       6.669675     -4.266313      6.113500
  H       9.239405     -3.916999      3.859121
  O       9.341230     -4.738786      4.367234
  H       8.954567     -4.488497      5.222089
  S       5.710265     -2.192691      8.738926
  H       5.165801     -3.021214      9.653701
  H       4.925271     -2.709627      7.696115
30
Coordinates from ORCA-job neb_18_66_CI_MEP.QMRegion E -2059.676850142458
  H       4.376928     -2.479797      5.743237
  O       4.120442     -3.102307      6.452211
  H       4.427326     -3.963509      6.105014
  H       4.942112     -2.165564      3.583850
  O       4.965191     -1.482851      4.287491
  H       4.158579     -0.919829      4.132681
  H       2.007385     -0.867934      5.240751
  O       1.458818     -1.418508      5.830133
  H       1.477946     -1.018908      6.713608
  H       5.700315     -5.580436      4.670854
  O       5.142349     -5.514648      5.479156
  H       4.353320     -6.044047      5.286481
  H       4.394956     -0.633943      7.349008
  O       4.126917      0.185453      6.927136
  H       4.938304      0.595580      6.581290
  H       7.576673     -2.605178      4.233236
  O       7.783044     -2.676465      3.285177
  H       7.238108     -3.431323      3.005049
  H       6.737801     -6.026135      2.642268
  O       6.855514     -5.385855      3.376060
  H       7.785451     -5.471894      3.675591
  H       7.214812     -2.762757      6.787877
  O       7.376640     -3.314912      6.010793
  H       6.612696     -3.907575      5.990333
  H       9.244491     -4.017079      3.844155
  O       9.400844     -4.847954      4.326900
  H       9.121692     -4.615182      5.222428
  S       6.618627     -3.322346      9.284209
  H       5.687641     -2.658057      9.997867
  H       5.685504     -3.807517      8.440979
30
Coordinates from ORCA-job neb_18_66_CI_MEP.QMRegion E -2059.676404253349
  H       4.311055     -2.424481      5.698848
  O       4.039742     -2.983042      6.456137
  H       4.387170     -3.857833      6.203726
  H       4.917089     -2.151528      3.575874
  O       4.943750     -1.468588      4.277958
  H       4.139865     -0.898083      4.119863
  H       1.988634     -0.853956      5.255632
  O       1.438116     -1.408641      5.838109
  H       1.446960     -1.009933      6.723140
  H       5.640727     -5.516888      4.671231
  O       5.104258     -5.443597      5.493647
  H       4.312450     -5.975813      5.321625
  H       4.273381     -0.700817      7.227647
  O       4.069967      0.179833      6.901933
  H       4.902421      0.564037      6.582015
  H       7.497299     -2.560497      4.264508
  O       7.745328     -2.639617      3.326520
  H       7.183597     -3.373063      3.023518
  H       6.693478     -5.989837      2.646104
  O       6.790756     -5.338796      3.373118
  H       7.715174     -5.415216      3.691740
  H       6.995921     -2.807673      6.825182
  O       7.228865     -3.323251      6.039856
  H       6.508436     -3.966348      5.975003
  H       9.139492     -3.953276      3.911029
  O       9.317916     -4.794076      4.371724
  H       9.040494     -4.588881      5.273948
  S       7.063422     -3.153065      9.445148
  H       5.744706     -3.431993      9.407314
  H       7.377228     -4.319723      8.848025
30
Coordinates from ORCA-job neb_18_66_CI_MEP.QMRegion E -2059.674781205469
  H       4.368291     -2.451131      5.654445
  O       4.152372     -3.002500      6.434929
  H       4.455649     -3.888611      6.160399
  H       4.937213     -2.159962      3.555046
  O       4.958794     -1.478255      4.260104
  H       4.152850     -0.908659      4.108567
  H       2.007301     -0.869925      5.259022
  O       1.453617     -1.425128      5.838067
  H       1.462501     -1.028748      6.723907
  H       5.673648     -5.565565      4.660970
  O       5.135956     -5.488103      5.480806
  H       4.348562     -6.029688      5.318492
  H       4.288072     -0.710531      7.237270
  O       4.081383      0.161663      6.891846
  H       4.916351      0.550474      6.583171
  H       7.543518     -2.625714      4.293726
  O       7.811388     -2.698860      3.360159
  H       7.272570     -3.447658      3.050598
  H       6.739183     -6.030923      2.640090
  O       6.859126     -5.395872      3.379240
  H       7.780100     -5.502315      3.693432
  H       6.647316     -2.716827      6.612765
  O       7.224285     -3.306400      6.109872
  H       6.664341     -4.087894      5.998506
  H       9.181026     -3.992918      3.964053
  O       9.412834     -4.863689      4.340270
  H       9.303041     -4.728439      5.287811
  S       7.335850     -3.574921      9.688230
  H       6.232854     -4.028060      9.058633
  H       8.117854     -3.882878      8.634411
30
Coordinates from ORCA-job neb_18_66_CI_MEP.QMRegion E -2059.675508333874
  H       4.344520     -2.421644      5.600807
  O       4.250590     -2.954322      6.419960
  H       4.472286     -3.865396      6.121292
  H       4.928967     -2.152907      3.535584
  O       4.943236     -1.469244      4.238708
  H       4.139903     -0.896846      4.083227
  H       2.006386     -0.864048      5.270138
  O       1.458526     -1.426463      5.847588
  H       1.453826     -1.024338      6.731683
  H       5.632185     -5.462456      4.687360
  O       5.059288     -5.420004      5.483303
  H       4.319254     -6.015650      5.293627
  H       4.281636     -0.713184      7.217469
  O       4.079553      0.169991      6.897284
  H       4.914252      0.555898      6.584938
  H       7.523616     -2.590841      4.345441
  O       7.828982     -2.676852      3.419542
  H       7.285680     -3.416597      3.095481
  H       6.716896     -5.997606      2.647131
  O       6.832883     -5.354697      3.379263
  H       7.743316     -5.478308      3.711879
  H       6.181783     -2.772806      6.332596
  O       7.101184     -3.041418      6.134440
  H       7.033854     -4.000751      6.213215
  H       9.136108     -3.956966      4.052129
  O       9.394831     -4.854825      4.343209
  H       9.450079     -4.792835      5.301805
  S       7.662666     -4.545190      9.342958
  H       6.577969     -3.810370      9.018582
  H       8.491852     -3.629489      8.799059
30
Coordinates from ORCA-job neb_18_66_CI_MEP.QMRegion E -2059.676294899066
  H       4.275270     -2.390203      5.599423
  O       4.172117     -2.930694      6.411435
  H       4.432726     -3.829484      6.109718
  H       4.918232     -2.150857      3.537916
  O       4.935326     -1.463211      4.236897
  H       4.134378     -0.888140      4.076505
  H       1.996183     -0.856311      5.263395
  O       1.450468     -1.417663      5.843752
  H       1.452556     -1.017335      6.728599
  H       5.622003     -5.403200      4.648250
  O       5.059014     -5.366059      5.452990
  H       4.325166     -5.973092      5.276187
  H       4.279237     -0.690894      7.246323
  O       4.073799      0.180720      6.898247
  H       4.908866      0.568534      6.588902
  H       7.518001     -2.492910      4.349433
  O       7.853791     -2.613362      3.438197
  H       7.299525     -3.343179      3.110172
  H       6.707018     -5.936291      2.633345
  O       6.813385     -5.275475      3.349970
  H       7.713606     -5.404680      3.712217
  H       6.125244     -2.664191      6.326502
  O       7.039826     -2.939754      6.124971
  H       6.953410     -3.900576      6.111365
  H       9.116998     -3.936228      4.171691
  O       9.311912     -4.851781      4.451763
  H       9.266851     -4.834748      5.414636
  S       8.445945     -4.882632      8.639749
  H       7.367088     -4.088778      8.481408
  H       9.276644     -3.822426      8.563705
30
Coordinates from ORCA-job neb_18_66_CI_MEP.QMRegion E -2059.679317520539
  H       4.295550     -2.362508      5.620213
  O       4.154321     -2.888584      6.437810
  H       4.406101     -3.791498      6.149330
  H       4.912364     -2.139761      3.549383
  O       4.936503     -1.455345      4.251061
  H       4.137732     -0.875241      4.091679
  H       2.002422     -0.843695      5.290014
  O       1.449958     -1.407146      5.860614
  H       1.440443     -1.009116      6.747191
  H       5.593399     -5.361222      4.587223
  O       5.043852     -5.314246      5.402713
  H       4.315305     -5.935389      5.257267
  H       4.256716     -0.711574      7.260790
  O       4.076170      0.175375      6.937303
  H       4.918283      0.552293      6.637081
  H       7.546185     -2.414293      4.422450
  O       7.863577     -2.542792      3.509906
  H       7.284057     -3.253633      3.183082
  H       6.686429     -5.860079      2.611713
  O       6.789493     -5.196568      3.324919
  H       7.700951     -5.320372      3.675319
  H       6.134296     -2.706595      6.516202
  O       7.002827     -3.052498      6.232846
  H       6.761052     -3.949989      5.969588
  H       9.155710     -3.952281      4.156688
  O       9.304315     -4.902897      4.308372
  H       9.345519     -5.008688      5.273445
  S       9.113771     -5.236400      7.715119
  H       8.229852     -4.213475      7.623813
  H      10.137944     -4.397658      7.972075
