30
Coordinates from ORCA-job neb_317_477_CI_MEP.QMRegion E -2059.689252586791
  H      -4.590447      0.614711      2.183041
  O      -4.894875     -0.329176      2.177334
  H      -4.377516     -0.758102      1.482164
  H      -4.326490     -2.636252      4.307847
  O      -5.208245     -2.270618      4.070904
  H      -5.004021     -1.470389      3.540479
  H      -5.863381     -3.203937      1.322081
  O      -6.300245     -3.751244      2.024469
  H      -5.960946     -3.348129      2.852535
  H      -6.291427     -0.025257      1.056645
  O      -6.716369     -0.129811      0.188420
  H      -7.646380     -0.293946      0.382923
  H      -5.407168     -3.066881     -0.644450
  O      -5.201612     -2.374855      0.010322
  H      -5.800477     -1.614066     -0.176545
  H      -9.033232     -1.778513     -2.335592
  O      -8.537862     -1.546047     -1.521796
  H      -8.624964     -2.275945     -0.875199
  H      -7.948464     -3.750024      0.915709
  O      -8.665389     -3.652022      0.265894
  H      -8.506765     -4.366215     -0.384160
  H      -6.855733     -5.190453     -1.437193
  O      -7.780862     -5.448531     -1.675096
  H      -7.881132     -5.071328     -2.578286
  H      -8.868912     -2.843874     -4.187706
  O      -9.448908     -2.071290     -4.034126
  H      -9.104022     -1.373936     -4.605816
  S      -9.047015     -1.177052      2.622904
  H      -9.689147     -2.045719      1.814539
  H      -8.032437     -2.052175      2.803129
30
Coordinates from ORCA-job neb_317_477_CI_MEP.QMRegion E -2059.685729024944
  H      -4.583627      0.619611      2.197485
  O      -4.886060     -0.325046      2.203850
  H      -4.349929     -0.764169      1.529979
  H      -4.323343     -2.631060      4.325472
  O      -5.205147     -2.263702      4.092139
  H      -5.001848     -1.458252      3.570084
  H      -5.817028     -3.195920      1.357369
  O      -6.281973     -3.747998      2.035621
  H      -5.993350     -3.337407      2.878145
  H      -6.287746     -0.062801      1.072244
  O      -6.646407     -0.152282      0.173412
  H      -7.593179     -0.305199      0.250093
  H      -5.356216     -3.111444     -0.603463
  O      -5.133502     -2.403723      0.030678
  H      -5.705121     -1.634081     -0.188678
  H      -8.982556     -1.762055     -2.318437
  O      -8.504089     -1.534557     -1.492383
  H      -8.558367     -2.286096     -0.861667
  H      -7.867209     -3.687576      0.928350
  O      -8.559850     -3.627404      0.245300
  H      -8.376490     -4.359101     -0.377983
  H      -6.824056     -5.206225     -1.440505
  O      -7.755110     -5.454325     -1.670144
  H      -7.860315     -5.075479     -2.571371
  H      -8.797848     -2.831111     -4.179253
  O      -9.343013     -2.031018     -4.032296
  H      -8.964492     -1.353504     -4.606636
  S     -10.175355     -1.586032      2.378122
  H     -10.456037     -2.283161      1.258967
  H      -9.226752     -2.482827      2.720086
30
Coordinates from ORCA-job neb_317_477_CI_MEP.QMRegion E -2059.685297596920
  H      -4.609491      0.609240      2.186302
  O      -4.921248     -0.331855      2.190262
  H      -4.381874     -0.777717      1.523139
  H      -4.345315     -2.646768      4.315400
  O      -5.229794     -2.284647      4.085659
  H      -5.033912     -1.478866      3.562197
  H      -5.850256     -3.216612      1.347939
  O      -6.318906     -3.773607      2.019596
  H      -6.042848     -3.364365      2.865823
  H      -6.322497     -0.089745      1.042713
  O      -6.662629     -0.184427      0.137376
  H      -7.608406     -0.351668      0.188592
  H      -5.354293     -3.142439     -0.597915
  O      -5.143252     -2.425357      0.031479
  H      -5.713800     -1.660963     -0.206410
  H      -9.002704     -1.773617     -2.341993
  O      -8.528617     -1.551913     -1.511242
  H      -8.594126     -2.307107     -0.885721
  H      -7.911667     -3.695889      0.922844
  O      -8.606218     -3.639455      0.241126
  H      -8.418834     -4.372960     -0.378339
  H      -6.840225     -5.207417     -1.442076
  O      -7.768615     -5.459851     -1.673649
  H      -7.873813     -5.082891     -2.575663
  H      -8.819363     -2.856047     -4.189267
  O      -9.375175     -2.061700     -4.049185
  H      -9.005260     -1.385640     -4.630612
  S     -10.620906     -1.827700      2.316115
  H     -10.783130     -2.325540      1.074526
  H      -9.681421     -2.757588      2.583842
30
Coordinates from ORCA-job neb_317_477_CI_MEP.QMRegion E -2059.685294552196
  H      -4.631252      0.609932      2.186333
  O      -4.953463     -0.327542      2.190821
  H      -4.415563     -0.779992      1.526892
  H      -4.357519     -2.651660      4.309169
  O      -5.244802     -2.294774      4.083254
  H      -5.057029     -1.485852      3.562131
  H      -5.872736     -3.224121      1.343610
  O      -6.343612     -3.786353      2.009122
  H      -6.079330     -3.378436      2.858940
  H      -6.357275     -0.091449      1.033628
  O      -6.685846     -0.191408      0.124206
  H      -7.630811     -0.362358      0.160780
  H      -5.355827     -3.149390     -0.594137
  O      -5.154712     -2.428016      0.034203
  H      -5.728772     -1.669121     -0.211395
  H      -9.019862     -1.778212     -2.351788
  O      -8.543866     -1.556994     -1.521403
  H      -8.623326     -2.306954     -0.892315
  H      -7.938404     -3.691130      0.933467
  O      -8.644307     -3.633952      0.262641
  H      -8.464304     -4.369441     -0.355995
  H      -6.852727     -5.200253     -1.432378
  O      -7.779271     -5.456219     -1.665278
  H      -7.883205     -5.081281     -2.567903
  H      -8.842916     -2.880156     -4.182990
  O      -9.413581     -2.095583     -4.045090
  H      -9.064221     -1.419932     -4.639395
  S     -11.004399     -2.079232      2.263951
  H     -11.187067     -2.271752      0.942577
  H     -10.030082     -3.011215      2.279698
30
Coordinates from ORCA-job neb_317_477_CI_MEP.QMRegion E -2059.685347462947
  H      -4.625940      0.593425      2.168115
  O      -4.945614     -0.344352      2.166610
  H      -4.402830     -0.794726      1.504960
  H      -4.360813     -2.667217      4.305283
  O      -5.246913     -2.308351      4.076828
  H      -5.054498     -1.504870      3.549920
  H      -5.859446     -3.234146      1.334905
  O      -6.336965     -3.795194      1.997613
  H      -6.078308     -3.390505      2.850692
  H      -6.347381     -0.125098      1.006713
  O      -6.675498     -0.224999      0.097517
  H      -7.618097     -0.412448      0.131868
  H      -5.342334     -3.175286     -0.596138
  O      -5.143271     -2.447364      0.026835
  H      -5.715502     -1.690649     -0.229531
  H      -9.022329     -1.804020     -2.366015
  O      -8.549618     -1.579793     -1.534048
  H      -8.620537     -2.333206     -0.909668
  H      -7.899973     -3.722909      0.932621
  O      -8.611945     -3.658738      0.267310
  H      -8.450133     -4.397682     -0.352460
  H      -6.851265     -5.209956     -1.443083
  O      -7.777743     -5.466649     -1.674652
  H      -7.883343     -5.093352     -2.577708
  H      -8.854845     -2.917001     -4.184520
  O      -9.434458     -2.137306     -4.051658
  H      -9.094435     -1.465720     -4.655535
  S     -11.269196     -2.468743      2.087977
  H     -11.514138     -2.456022      0.762462
  H     -10.167101     -3.221830      1.887597
30
Coordinates from ORCA-job neb_317_477_CI_MEP.QMRegion E -2059.685809009408
  H      -4.637288      0.587540      2.160177
  O      -4.961430     -0.348487      2.156479
  H      -4.418892     -0.801249      1.496108
  H      -4.371465     -2.675367      4.300078
  O      -5.258469     -2.318600      4.072665
  H      -5.068431     -1.515853      3.544038
  H      -5.878203     -3.242767      1.328946
  O      -6.355358     -3.807131      1.989377
  H      -6.101192     -3.403915      2.844024
  H      -6.366427     -0.137579      0.993326
  O      -6.692243     -0.240928      0.084136
  H      -7.634021     -0.435559      0.116225
  H      -5.342313     -3.186355     -0.594598
  O      -5.150895     -2.454506      0.027162
  H      -5.725629     -1.702654     -0.236497
  H      -9.037474     -1.816095     -2.380970
  O      -8.562833     -1.590090     -1.550245
  H      -8.637155     -2.341829     -0.926025
  H      -7.921607     -3.740084      0.940806
  O      -8.625091     -3.669708      0.266293
  H      -8.463809     -4.409860     -0.352809
  H      -6.856669     -5.209961     -1.444724
  O      -7.782629     -5.467824     -1.675761
  H      -7.889009     -5.095547     -2.579370
  H      -8.878945     -2.948225     -4.181520
  O      -9.473363     -2.178877     -4.051531
  H      -9.153319     -1.509460     -4.668306
  S     -11.534865     -2.856727      1.843523
  H     -11.818831     -2.687112      0.536224
  H     -10.336623     -3.403723      1.530615
30
Coordinates from ORCA-job neb_317_477_CI_MEP.QMRegion E -2059.685971946422
  H      -4.684704      0.658120      2.227071
  O      -5.028876     -0.273304      2.246906
  H      -4.476247     -0.748075      1.611743
  H      -4.348990     -2.589987      4.320777
  O      -5.242664     -2.246420      4.102787
  H      -5.081801     -1.419248      3.599795
  H      -5.885029     -3.204728      1.402587
  O      -6.345907     -3.770485      2.070876
  H      -6.082893     -3.354599      2.917421
  H      -6.387480     -0.042531      1.034001
  O      -6.677133     -0.166112      0.115390
  H      -7.623796     -0.335040      0.112369
  H      -5.360001     -3.143346     -0.545984
  O      -5.153492     -2.423854      0.082301
  H      -5.714338     -1.659049     -0.173304
  H      -9.019208     -1.810416     -2.325475
  O      -8.533665     -1.560372     -1.506561
  H      -8.612455     -2.284978     -0.852059
  H      -7.971398     -3.653006      1.074280
  O      -8.633867     -3.587420      0.358302
  H      -8.439235     -4.333721     -0.241947
  H      -6.849540     -5.198065     -1.381258
  O      -7.783227     -5.445110     -1.598707
  H      -7.892915     -5.078804     -2.501070
  H      -8.870128     -2.987833     -4.102666
  O      -9.464466     -2.216334     -3.968647
  H      -9.160835     -1.561394     -4.608508
  S     -12.059807     -4.007800      0.722555
  H     -12.078824     -3.555304     -0.547645
  H     -10.714280     -3.862357      0.801021
