33
Coordinates from ORCA-job neb_14_436_CI_MEP.QMRegion E -2131.011875462179
  H      -0.763361      6.374657      5.005199
  O      -1.358528      6.953821      5.548040
  H      -1.367564      7.835994      5.091583
  H      -1.719183      4.401920      7.687234
  O      -0.839072      4.536149      8.108466
  H      -0.623204      5.487375      8.067573
  H      -3.893154      4.569569      7.783430
  O      -3.307133      4.141816      7.113396
  H      -3.490213      3.192720      7.253047
  H      -3.865510      5.222888      5.586852
  O      -3.878225      6.096122      5.166680
  H      -2.935516      6.378805      5.238619
  H      -5.690033      3.629656      5.324407
  O      -6.427346      3.966713      5.880966
  H      -6.271879      4.914531      5.930104
  H      -2.026202      5.205471     10.760326
  O      -2.804193      4.622128     10.930672
  H      -2.979726      4.699954     11.871531
  H      -4.278442      4.890998      9.854095
  O      -4.885738      5.061172      9.106876
  H      -5.481436      4.292541      9.066846
  H       0.156743      5.942013     10.897268
  O      -0.679595      6.369252     10.684991
  H      -0.523956      6.770759      9.810407
  H      -3.892998      9.073740      6.510695
  O      -4.002154      9.019435      5.549113
  H      -4.224103      8.085373      5.405024
  H       0.691627      7.134039      7.576345
  O      -0.215569      7.176027      7.935799
  H      -0.729963      7.202526      7.083081
  S      -3.768496      8.570524      8.937539
  H      -4.290240      7.330352      8.805501
  H      -2.501563      8.129407      8.804996
33
Coordinates from ORCA-job neb_14_436_CI_MEP.QMRegion E -2131.009972800188
  H      -0.730673      6.373987      5.008166
  O      -1.325693      6.954052      5.551367
  H      -1.339498      7.833717      5.091913
  H      -1.680273      4.401046      7.687203
  O      -0.805034      4.538537      8.116162
  H      -0.581001      5.488940      8.071234
  H      -3.848792      4.562082      7.790173
  O      -3.268260      4.136498      7.113059
  H      -3.451904      3.187705      7.253477
  H      -3.819878      5.208664      5.587445
  O      -3.832524      6.077266      5.156927
  H      -2.889302      6.361400      5.227162
  H      -5.658102      3.612791      5.324647
  O      -6.398493      3.953298      5.877264
  H      -6.244350      4.901231      5.916732
  H      -1.998402      5.204313     10.770937
  O      -2.769027      4.612507     10.946097
  H      -2.940776      4.684301     11.887939
  H      -4.241915      4.863286      9.864139
  O      -4.851512      5.022812      9.116280
  H      -5.434315      4.244358      9.077537
  H       0.154256      6.012118     10.920509
  O      -0.690542      6.404538     10.677294
  H      -0.525854      6.793840      9.797297
  H      -3.913812      9.077684      6.470508
  O      -3.990612      8.990104      5.508952
  H      -4.177852      8.045481      5.382447
  H       0.728584      7.123664      7.575870
  O      -0.174150      7.168853      7.946836
  H      -0.697484      7.209579      7.102499
  S      -4.320165      8.669762      8.888246
  H      -5.134610      7.643419      8.570229
  H      -3.256776      7.847339      8.958093
33
Coordinates from ORCA-job neb_14_436_CI_MEP.QMRegion E -2131.009297295032
  H      -0.740379      6.372254      5.006877
  O      -1.339554      6.949926      5.547512
  H      -1.349761      7.830775      5.090781
  H      -1.689371      4.398082      7.684370
  O      -0.813962      4.535227      8.112742
  H      -0.592911      5.486470      8.070666
  H      -3.860377      4.557825      7.788573
  O      -3.280517      4.134890      7.108984
  H      -3.460412      3.185441      7.249812
  H      -3.831976      5.202074      5.583709
  O      -3.843389      6.070634      5.152869
  H      -2.900024      6.354871      5.224020
  H      -5.669069      3.607685      5.321567
  O      -6.410391      3.946360      5.873966
  H      -6.260540      4.895168      5.909277
  H      -2.016710      5.203886     10.771362
  O      -2.782863      4.606422     10.947769
  H      -2.955460      4.677134     11.889461
  H      -4.253914      4.843620      9.868025
  O      -4.861500      5.011433      9.120591
  H      -5.446842      4.235205      9.076579
  H       0.123572      6.037393     10.922907
  O      -0.725318      6.416039     10.672360
  H      -0.560299      6.803863      9.791564
  H      -3.933821      9.068311      6.464326
  O      -3.999857      8.978431      5.502553
  H      -4.187553      8.033783      5.376076
  H       0.715960      7.122063      7.573261
  O      -0.186377      7.166580      7.944585
  H      -0.711896      7.208842      7.102264
  S      -4.511264      8.675163      8.870057
  H      -5.416335      7.765174      8.455821
  H      -3.567783      7.719573      8.984921
33
Coordinates from ORCA-job neb_14_436_CI_MEP.QMRegion E -2131.009243046136
  H      -0.757976      6.373623      5.006385
  O      -1.359031      6.949435      5.545265
  H      -1.369091      7.830144      5.088312
  H      -1.707495      4.401728      7.685843
  O      -0.830043      4.536520      8.110845
  H      -0.610391      5.488145      8.069624
  H      -3.878849      4.559853      7.792301
  O      -3.299610      4.136673      7.112265
  H      -3.477782      3.186903      7.252504
  H      -3.844090      5.200678      5.587993
  O      -3.853427      6.064311      5.147572
  H      -2.910163      6.349920      5.219973
  H      -5.689625      3.603175      5.318964
  O      -6.429491      3.942619      5.872171
  H      -6.276497      4.891194      5.907726
  H      -2.033369      5.216159     10.767978
  O      -2.796813      4.615092     10.947405
  H      -2.956341      4.676219     11.892287
  H      -4.273108      4.858165      9.862780
  O      -4.882232      5.013499      9.114380
  H      -5.450631      4.224168      9.069515
  H       0.092524      6.076118     10.916287
  O      -0.760852      6.439921     10.659398
  H      -0.596932      6.820462      9.774600
  H      -3.979676      9.065511      6.459182
  O      -4.019431      8.969084      5.496620
  H      -4.191922      8.020153      5.377717
  H       0.701393      7.111031      7.565639
  O      -0.196415      7.164634      7.946966
  H      -0.732202      7.218646      7.113678
  S      -4.656952      8.651743      8.805583
  H      -5.676159      7.882408      8.372247
  H      -3.899706      7.562103      9.032777
33
Coordinates from ORCA-job neb_14_436_CI_MEP.QMRegion E -2131.009255146485
  H      -0.763033      6.371720      5.003976
  O      -1.367506      6.945665      5.540668
  H      -1.374796      7.827217      5.086101
  H      -1.710950      4.401399      7.683030
  O      -0.833823      4.535474      8.107876
  H      -0.617790      5.488046      8.069254
  H      -3.888703      4.558455      7.793395
  O      -3.309348      4.138835      7.111638
  H      -3.482709      3.188017      7.249214
  H      -3.855583      5.197951      5.583902
  O      -3.864977      6.063941      5.148090
  H      -2.921286      6.348580      5.220407
  H      -5.693743      3.602702      5.318144
  O      -6.435991      3.938633      5.870252
  H      -6.290956      4.888539      5.901631
  H      -2.056503      5.224970     10.767805
  O      -2.808574      4.610500     10.951342
  H      -2.971151      4.676195     11.895348
  H      -4.274868      4.840254      9.869117
  O      -4.886350      5.010446      9.125365
  H      -5.459654      4.225257      9.069591
  H       0.057399      6.107037     10.918184
  O      -0.799738      6.457385     10.655179
  H      -0.635838      6.837107      9.770060
  H      -3.993627      9.052609      6.465904
  O      -4.018257      8.962710      5.502413
  H      -4.199793      8.016543      5.375763
  H       0.690216      7.114815      7.563070
  O      -0.207715      7.167133      7.943588
  H      -0.744188      7.220361      7.111021
  S      -4.824065      8.629394      8.781553
  H      -5.905036      8.028491      8.242416
  H      -4.251537      7.433642      9.022999
33
Coordinates from ORCA-job neb_14_436_CI_MEP.QMRegion E -2131.009459778064
  H      -0.771047      6.366241      5.001522
  O      -1.379542      6.937530      5.536528
  H      -1.383457      7.820603      5.086207
  H      -1.716105      4.391337      7.674885
  O      -0.841453      4.527775      8.103865
  H      -0.628154      5.481113      8.067649
  H      -3.888045      4.546329      7.778509
  O      -3.312977      4.126100      7.095130
  H      -3.486730      3.176040      7.239474
  H      -3.864281      5.181363      5.571780
  O      -3.872813      6.048337      5.137921
  H      -2.929992      6.334997      5.213108
  H      -5.702795      3.591962      5.312074
  O      -6.445005      3.927062      5.864934
  H      -6.304878      4.877914      5.888569
  H      -2.081511      5.218956     10.758042
  O      -2.826898      4.596089     10.942854
  H      -2.995832      4.663627     11.885325
  H      -4.280437      4.796331      9.873921
  O      -4.886869      4.980386      9.128788
  H      -5.481841      4.211137      9.071186
  H       0.019699      6.123264     10.920211
  O      -0.840115      6.460544     10.649194
  H      -0.674666      6.840983      9.764731
  H      -3.993328      9.008351      6.477607
  O      -4.027786      8.936788      5.513490
  H      -4.215097      7.993732      5.371726
  H       0.677053      7.113517      7.563116
  O      -0.222974      7.159716      7.938312
  H      -0.756926      7.208416      7.103654
  S      -5.041547      8.555684      8.775492
  H      -6.125565      8.144571      8.083789
  H      -4.643985      7.278262      8.959813
33
Coordinates from ORCA-job neb_14_436_CI_MEP.QMRegion E -2131.010230876985
  H      -0.766806      6.367419      5.003232
  O      -1.375374      6.937718      5.538931
  H      -1.382345      7.820525      5.089360
  H      -1.709783      4.394470      7.674865
  O      -0.836176      4.529262      8.106042
  H      -0.621133      5.482281      8.069993
  H      -3.875540      4.554059      7.775901
  O      -3.305946      4.126373      7.094175
  H      -3.482487      3.177743      7.244087
  H      -3.857589      5.176770      5.571990
  O      -3.863785      6.039319      5.129959
  H      -2.922650      6.330249      5.211459
  H      -5.698576      3.586039      5.309844
  O      -6.441006      3.921339      5.863058
  H      -6.305279      4.872894      5.879922
  H      -2.097782      5.232030     10.751134
  O      -2.836670      4.599975     10.934640
  H      -3.002649      4.661198     11.878236
  H      -4.280983      4.825835      9.868143
  O      -4.891093      4.985913      9.118629
  H      -5.475009      4.207589      9.068974
  H      -0.015282      6.172926     10.926172
  O      -0.878835      6.487904     10.640846
  H      -0.709038      6.862542      9.754480
  H      -4.022489      8.969019      6.505184
  O      -4.028396      8.914322      5.540489
  H      -4.209939      7.972442      5.382630
  H       0.680472      7.111802      7.563997
  O      -0.218194      7.160738      7.942054
  H      -0.756168      7.210989      7.110939
  S      -5.331435      8.374747      8.724757
  H      -6.404900      8.278275      7.913396
  H      -5.237041      7.028274      8.856319
