18
Coordinates from ORCA-job neb_45_428_CI_MEP.QMRegion E -1774.358236386588
  H      -0.773938      8.795219     -2.242723
  O      -0.641999      9.656058     -1.774284
  H       0.067927      9.479203     -1.130441
  H       1.708048      8.332598      0.710099
  O       1.394548      8.626701     -0.174659
  H       2.199196      8.627765     -0.722782
  H       3.645969      7.085639     -1.244413
  O       3.850260      8.027435     -1.453086
  H       4.229976      7.944563     -2.346300
  H       4.865662      8.407890      0.057396
  O       5.193271      8.416104      0.980623
  H       5.448549      7.489679      1.126777
  H       3.533972      8.200607      1.961428
  O       2.734071      7.648546      2.025396
  H       2.293590      7.829442      2.874577
  S       7.242698     11.205883      1.231688
  H       7.100417     11.366576     -0.099795
  H       6.545803     10.044826      1.219688
18
Coordinates from ORCA-job neb_45_428_CI_MEP.QMRegion E -1774.356585891829
  H      -0.728345      8.766696     -2.220125
  O      -0.587006      9.613210     -1.728965
  H       0.143940      9.421315     -1.114474
  H       1.877354      8.299750      0.717947
  O       1.561757      8.570079     -0.173555
  H       2.368682      8.537407     -0.718298
  H       3.798424      7.021940     -1.161606
  O       4.080801      7.949038     -1.344980
  H       4.425227      7.861729     -2.253465
  H       5.082846      8.304973      0.185925
  O       5.409463      8.374961      1.105860
  H       5.657471      7.458272      1.303682
  H       3.681170      8.191942      2.075113
  O       2.857941      7.671507      2.094123
  H       2.388043      7.840624      2.928855
  S       6.028083     11.867405      0.114382
  H       4.880530     11.632360     -0.554283
  H       6.140443     10.574949      0.485111
18
Coordinates from ORCA-job neb_45_428_CI_MEP.QMRegion E -1774.356201505693
  H      -0.734836      8.775091     -2.231518
  O      -0.597464      9.625326     -1.745728
  H       0.140389      9.443015     -1.136556
  H       1.865145      8.326768      0.692419
  O       1.550373      8.595706     -0.200243
  H       2.355957      8.551100     -0.747242
  H       3.786828      7.032439     -1.176522
  O       4.055154      7.963474     -1.359932
  H       4.403064      7.883700     -2.267548
  H       5.047950      8.335760      0.176840
  O       5.366917      8.410559      1.098716
  H       5.629979      7.498409      1.297124
  H       3.662434      8.200454      2.035106
  O       2.835100      7.684641      2.063982
  H       2.375372      7.856523      2.903720
  S       5.463036     11.967928     -0.410721
  H       4.181470     11.550708     -0.365159
  H       5.919619     10.758476     -0.030817
18
Coordinates from ORCA-job neb_45_428_CI_MEP.QMRegion E -1774.355923075977
  H      -0.752355      8.778297     -2.244072
  O      -0.614914      9.631460     -1.762651
  H       0.120870      9.450935     -1.150396
  H       1.826855      8.335536      0.681948
  O       1.512353      8.611961     -0.209267
  H       2.315736      8.567031     -0.759674
  H       3.751867      7.047469     -1.190574
  O       4.000930      7.981046     -1.388086
  H       4.351648      7.893130     -2.293993
  H       4.998499      8.356622      0.167286
  O       5.307157      8.404824      1.092741
  H       5.556806      7.483539      1.271540
  H       3.620848      8.194636      1.999619
  O       2.793757      7.677076      2.038793
  H       2.342162      7.853280      2.882370
  S       5.040396     12.032436     -0.607802
  H       3.833313     11.530370     -0.276057
  H       5.617481     10.817490     -0.535939
18
Coordinates from ORCA-job neb_45_428_CI_MEP.QMRegion E -1774.355804670261
  H      -0.769410      8.776517     -2.255173
  O      -0.629859      9.632085     -1.777473
  H       0.108031      9.453742     -1.167502
  H       1.809059      8.338748      0.665079
  O       1.492980      8.619724     -0.224555
  H       2.292613      8.569881     -0.780364
  H       3.733498      7.056070     -1.196957
  O       3.972135      7.988102     -1.413576
  H       4.319602      7.883002     -2.319414
  H       4.992346      8.375219      0.162619
  O       5.280582      8.388078      1.094716
  H       5.511234      7.457310      1.249579
  H       3.597890      8.184376      1.971310
  O       2.767805      7.670324      2.016078
  H       2.323272      7.848736      2.862896
  S       4.700239     12.049611     -0.749725
  H       3.607107     11.470371     -0.212795
  H       5.260454     10.852153     -1.006659
18
Coordinates from ORCA-job neb_45_428_CI_MEP.QMRegion E -1774.356275944588
  H      -0.787252      8.775975     -2.277411
  O      -0.646979      9.634602     -1.804373
  H       0.098524      9.462065     -1.202797
  H       1.790698      8.346501      0.629795
  O       1.474532      8.635076     -0.257696
  H       2.267876      8.571149     -0.821851
  H       3.707471      7.058143     -1.221763
  O       3.929898      7.990589     -1.454572
  H       4.283766      7.874187     -2.357184
  H       4.953316      8.381611      0.114419
  O       5.232817      8.387222      1.049243
  H       5.468780      7.456637      1.199710
  H       3.562074      8.175645      1.918747
  O       2.732739      7.660667      1.975701
  H       2.297668      7.844185      2.826317
  S       4.147306     11.926254     -1.055890
  H       3.235353     11.255913     -0.321894
  H       4.822601     10.793904     -1.330591
18
Coordinates from ORCA-job neb_45_428_CI_MEP.QMRegion E -1774.356733632298
  H      -0.778715      8.768592     -2.282145
  O      -0.641329      9.625884     -1.805889
  H       0.125999      9.466887     -1.231981
  H       1.852625      8.322433      0.615197
  O       1.539238      8.621920     -0.270633
  H       2.327061      8.527323     -0.839508
  H       3.762947      7.052078     -1.217076
  O       3.994622      7.982098     -1.448398
  H       4.337953      7.862634     -2.355411
  H       5.024830      8.421670      0.135303
  O       5.284704      8.402536      1.074775
  H       5.518980      7.469385      1.206471
  H       3.606416      8.173084      1.923422
  O       2.773910      7.661370      1.975297
  H       2.335132      7.842001      2.823880
  S       3.078860     11.768028     -1.451728
  H       2.479442     10.915496     -0.592800
  H       3.936438     10.814444     -1.863257
