21
Coordinates from ORCA-job neb_201_424_CI_MEP.QMRegion E -1845.683704228859
  H      -9.081512     -1.827634     -2.289914
  O      -8.500812     -1.552565     -1.556564
  H      -8.509340     -2.262512     -0.874540
  H      -7.781196     -3.662942      0.961778
  O      -8.474358     -3.555383      0.281293
  H      -8.338192     -4.305535     -0.323504
  H      -6.831117     -5.208465     -1.471140
  O      -7.744101     -5.489514     -1.733284
  H      -7.816348     -5.080854     -2.626182
  H      -6.949049     -3.383065     -3.580723
  O      -7.547954     -4.021870     -4.033608
  H      -7.001253     -4.444153     -4.736791
  H      -9.020110     -2.986374     -4.175056
  O      -9.755871     -2.408427     -3.877576
  H      -9.853495     -1.740726     -4.563810
  H      -7.598975     -8.594574     -1.472156
  O      -6.920784     -8.061602     -1.895585
  H      -7.292847     -7.147412     -1.899302
  S     -11.477480     -5.263200     -2.438096
  H     -11.114890     -4.153686     -3.116592
  H     -10.304081     -5.303151     -1.776739
21
Coordinates from ORCA-job neb_201_424_CI_MEP.QMRegion E -1845.682660963069
  H      -9.081666     -1.803812     -2.300796
  O      -8.502534     -1.537222     -1.561761
  H      -8.515199     -2.248734     -0.882798
  H      -7.784883     -3.649940      0.960062
  O      -8.473017     -3.547005      0.274049
  H      -8.316455     -4.286165     -0.339586
  H      -6.822294     -5.192817     -1.483092
  O      -7.733997     -5.468753     -1.754888
  H      -7.801077     -5.052129     -2.645202
  H      -6.956262     -3.361712     -3.598410
  O      -7.558153     -3.995629     -4.054148
  H      -7.010218     -4.422701     -4.752502
  H      -9.021523     -2.910734     -4.210428
  O      -9.743997     -2.321434     -3.909235
  H      -9.801647     -1.628423     -4.574871
  H      -7.623173     -8.568109     -1.474131
  O      -6.928195     -8.057809     -1.898852
  H      -7.282371     -7.137694     -1.921175
  S     -11.404425     -5.880182     -2.149903
  H     -11.205285     -4.888237     -3.040892
  H     -10.233586     -5.623665     -1.533304
21
Coordinates from ORCA-job neb_201_424_CI_MEP.QMRegion E -1845.682197157675
  H      -9.078539     -1.797327     -2.311297
  O      -8.501762     -1.536397     -1.567288
  H      -8.520063     -2.246976     -0.888306
  H      -7.784584     -3.656836      0.953628
  O      -8.472828     -3.551178      0.268131
  H      -8.309838     -4.283040     -0.352576
  H      -6.819971     -5.192605     -1.496962
  O      -7.734164     -5.462451     -1.766102
  H      -7.805437     -5.038818     -2.652635
  H      -6.965827     -3.358070     -3.608454
  O      -7.567180     -3.990459     -4.066308
  H      -7.014427     -4.421037     -4.758820
  H      -9.034333     -2.875980     -4.227914
  O      -9.738188     -2.266453     -3.926865
  H      -9.754166     -1.556328     -4.576768
  H      -7.638116     -8.558030     -1.474984
  O      -6.932478     -8.057115     -1.893145
  H      -7.283521     -7.137317     -1.934933
  S     -11.286504     -6.358397     -1.910042
  H     -11.198240     -5.509725     -2.953751
  H     -10.163935     -5.861721     -1.353503
21
Coordinates from ORCA-job neb_201_424_CI_MEP.QMRegion E -1845.682213363150
  H      -9.072623     -1.811232     -2.307443
  O      -8.498396     -1.552470     -1.560601
  H      -8.517307     -2.266331     -0.884721
  H      -7.780978     -3.678255      0.956485
  O      -8.470274     -3.575061      0.271481
  H      -8.302804     -4.303044     -0.353094
  H      -6.814536     -5.207662     -1.496810
  O      -7.728243     -5.478154     -1.766183
  H      -7.801635     -5.050629     -2.651140
  H      -6.966879     -3.371827     -3.608079
  O      -7.568004     -4.004350     -4.064983
  H      -7.014455     -4.435510     -4.757134
  H      -9.036321     -2.873688     -4.231929
  O      -9.728477     -2.251769     -3.930419
  H      -9.722957     -1.535085     -4.573493
  H      -7.642825     -8.570808     -1.469775
  O      -6.931223     -8.076402     -1.886170
  H      -7.278121     -7.155846     -1.936142
  S     -11.185694     -6.658656     -1.754009
  H     -11.156895     -5.912189     -2.877199
  H     -10.113600     -6.009878     -1.250544
21
Coordinates from ORCA-job neb_201_424_CI_MEP.QMRegion E -1845.682518974927
  H      -9.071528     -1.815985     -2.302882
  O      -8.497701     -1.562966     -1.553246
  H      -8.518376     -2.280931     -0.882139
  H      -7.781679     -3.693498      0.958754
  O      -8.472213     -3.593900      0.274096
  H      -8.299815     -4.315999     -0.355449
  H      -6.811050     -5.213544     -1.496917
  O      -7.724873     -5.485328     -1.770083
  H      -7.798382     -5.054311     -2.653439
  H      -6.971398     -3.377594     -3.610545
  O      -7.574853     -4.007462     -4.068069
  H      -7.021839     -4.440811     -4.759145
  H      -9.041754     -2.857633     -4.240740
  O      -9.721929     -2.224597     -3.938116
  H      -9.693704     -1.499701     -4.571023
  H      -7.653343     -8.572477     -1.463264
  O      -6.932453     -8.095194     -1.883121
  H      -7.266329     -7.171273     -1.939768
  S     -11.036126     -6.993558     -1.567558
  H     -11.085787     -6.380988     -2.767090
  H     -10.055808     -6.176344     -1.139774
21
Coordinates from ORCA-job neb_201_424_CI_MEP.QMRegion E -1845.683147115012
  H      -9.065912     -1.820223     -2.300510
  O      -8.494457     -1.572896     -1.547668
  H      -8.516985     -2.295489     -0.881172
  H      -7.779769     -3.712402      0.955901
  O      -8.473373     -3.612823      0.274925
  H      -8.300435     -4.332241     -0.358827
  H      -6.811023     -5.221429     -1.500833
  O      -7.723425     -5.492949     -1.772953
  H      -7.800404     -5.058156     -2.654152
  H      -6.974537     -3.385216     -3.611730
  O      -7.579348     -4.012050     -4.070310
  H      -7.025634     -4.448094     -4.759165
  H      -9.043310     -2.839116     -4.250996
  O      -9.710375     -2.193324     -3.946669
  H      -9.654834     -1.459742     -4.568259
  H      -7.663395     -8.574284     -1.455776
  O      -6.933248     -8.110664     -1.879444
  H      -7.257828     -7.185144     -1.942579
  S     -10.851358     -7.330282     -1.368432
  H     -10.975593     -6.863610     -2.627830
  H      -9.982782     -6.352131     -1.042135
21
Coordinates from ORCA-job neb_201_424_CI_MEP.QMRegion E -1845.684997946118
  H      -9.082424     -1.763181     -2.322621
  O      -8.509273     -1.540275     -1.563206
  H      -8.546542     -2.267968     -0.904422
  H      -7.802558     -3.702021      0.918367
  O      -8.504395     -3.596355      0.248072
  H      -8.344638     -4.313825     -0.392179
  H      -6.842990     -5.185501     -1.536525
  O      -7.758967     -5.446410     -1.803549
  H      -7.846472     -5.008677     -2.681613
  H      -7.013073     -3.345252     -3.637297
  O      -7.624181     -3.957210     -4.107141
  H      -7.066121     -4.405092     -4.782469
  H      -9.075794     -2.720331     -4.303467
  O      -9.709341     -2.046905     -3.992014
  H      -9.590383     -1.295774     -4.583477
  H      -7.720141     -8.517767     -1.461751
  O      -6.969716     -8.085161     -1.887417
  H      -7.278827     -7.158287     -1.974335
  S     -10.379890     -7.980564     -0.943151
  H     -10.658984     -7.861090     -2.257116
  H      -9.826606     -6.752163     -0.894863
