42
Coordinates from ORCA-job neb_316_365_CI_MEP.QMRegion E -2345.035349825785
  H      -4.599684      0.445067      2.121209
  O      -4.980088     -0.464953      2.148684
  H      -4.514160     -0.985167      1.479713
  H      -4.888087      2.489816      1.339003
  O      -4.220677      2.079487      1.928219
  H      -3.392488      2.102216      1.386504
  H      -5.772352      0.802326     -1.656908
  O      -4.855469      1.100091     -1.505945
  H      -4.917515      1.987864     -1.100002
  H      -3.139534      5.047021      1.148059
  O      -3.942869      5.382821      0.690373
  H      -4.358050      5.960386      1.383170
  H      -4.378608      2.708739      3.557948
  O      -4.410514      2.870213      4.526238
  H      -4.447457      1.968951      4.916738
  H      -4.973111      4.187031      0.038758
  O      -5.387447      3.328122     -0.195297
  H      -6.332923      3.452493     -0.412346
  H      -7.666333      3.806387     -2.007203
  O      -7.931610      3.218785     -1.262449
  H      -7.823292      2.315400     -1.649166
  H      -6.416642     -0.243741      1.137143
  O      -6.819721     -0.308718      0.246411
  H      -7.683462     -0.715370      0.345881
  H      -9.063868     -1.863779     -2.304151
  O      -8.534299     -1.640629     -1.510503
  H      -8.563845     -2.411767     -0.891485
  H      -7.775515     -3.790922      0.929362
  O      -8.482508     -3.694668      0.263947
  H      -8.372991     -4.463438     -0.329817
  H      -7.930237      0.026211     -1.996705
  O      -7.430978      0.760782     -2.398724
  H      -7.653462      0.745148     -3.356623
  H      -5.688619      3.761168      5.331894
  O      -6.390742      4.124187      5.917332
  H      -6.135647      5.038151      6.072542
  H     -10.499930      4.070883     -2.909559
  O     -10.628728      3.358334     -2.259344
  H      -9.776714      3.327169     -1.790233
  S      -7.790738      2.611008      2.450400
  H      -8.167513      2.984751      1.210876
  H      -7.772383      3.874352      2.921664
42
Coordinates from ORCA-job neb_316_365_CI_MEP.QMRegion E -2345.033347122883
  H      -4.570827      0.445675      2.114513
  O      -4.948862     -0.464759      2.142030
  H      -4.483115     -0.986194      1.474030
  H      -4.881822      2.497162      1.326438
  O      -4.219712      2.090246      1.926161
  H      -3.389053      2.113241      1.387978
  H      -5.761365      0.818179     -1.653033
  O      -4.846354      1.122014     -1.501223
  H      -4.918066      2.006816     -1.092278
  H      -3.142976      5.048834      1.146705
  O      -3.946660      5.384920      0.690368
  H      -4.358752      5.964424      1.384325
  H      -4.364888      2.711873      3.555339
  O      -4.401296      2.871441      4.523546
  H      -4.435788      1.970871      4.915280
  H      -5.012790      4.193414      0.063859
  O      -5.430037      3.329814     -0.147173
  H      -6.372390      3.451484     -0.386201
  H      -7.669233      3.820882     -2.010590
  O      -7.938984      3.224352     -1.274222
  H      -7.819685      2.326769     -1.671361
  H      -6.371911     -0.229841      1.124325
  O      -6.788194     -0.298700      0.239149
  H      -7.656761     -0.688306      0.360300
  H      -9.054242     -1.855402     -2.309127
  O      -8.524607     -1.626811     -1.516773
  H      -8.546668     -2.398405     -0.897188
  H      -7.763414     -3.780018      0.921585
  O      -8.467080     -3.679593      0.253248
  H      -8.364914     -4.452909     -0.335586
  H      -7.914363      0.033369     -2.000339
  O      -7.417094      0.769887     -2.402186
  H      -7.641210      0.752788     -3.359640
  H      -5.661244      3.781210      5.343547
  O      -6.351138      4.146765      5.940569
  H      -6.085081      5.056809      6.099643
  H     -10.518935      4.079146     -2.912895
  O     -10.633559      3.366397     -2.260230
  H      -9.772827      3.341266     -1.806162
  S      -8.466771      1.991060      2.337728
  H      -8.696437      2.487549      1.106732
  H      -8.780873      3.155540      2.944132
42
Coordinates from ORCA-job neb_316_365_CI_MEP.QMRegion E -2345.032594503161
  H      -4.573948      0.430280      2.117408
  O      -4.958690     -0.477544      2.143506
  H      -4.495766     -1.002888      1.476489
  H      -4.869834      2.483840      1.322327
  O      -4.217556      2.069111      1.931088
  H      -3.380256      2.090877      1.404983
  H      -5.766695      0.813789     -1.646259
  O      -4.853956      1.124332     -1.494243
  H      -4.935156      2.001953     -1.072787
  H      -3.149072      5.037204      1.144589
  O      -3.953097      5.375335      0.689898
  H      -4.360080      5.956080      1.385516
  H      -4.363955      2.697045      3.561662
  O      -4.405377      2.864159      4.528278
  H      -4.440769      1.965691      4.924543
  H      -5.049195      4.176219      0.099715
  O      -5.469810      3.309076     -0.088788
  H      -6.409988      3.429404     -0.341477
  H      -7.676816      3.805760     -1.999050
  O      -7.948865      3.210921     -1.263323
  H      -7.829760      2.311646     -1.659292
  H      -6.387266     -0.238296      1.133636
  O      -6.801891     -0.308243      0.248766
  H      -7.666579     -0.708140      0.373210
  H      -9.061539     -1.855307     -2.296125
  O      -8.528226     -1.625940     -1.508049
  H      -8.558461     -2.391315     -0.880559
  H      -7.776558     -3.783143      0.930705
  O      -8.478476     -3.682704      0.260608
  H      -8.369284     -4.450965     -0.333348
  H      -7.922265      0.028982     -1.987434
  O      -7.424922      0.764360     -2.392641
  H      -7.650127      0.747300     -3.349474
  H      -5.694747      3.768716      5.342833
  O      -6.370378      4.138129      5.952229
  H      -6.087767      5.042162      6.116634
  H     -10.512293      4.074292     -2.897639
  O     -10.635465      3.360325     -2.248156
  H      -9.779401      3.332501     -1.785056
  S      -8.777617      1.567486      2.196227
  H      -8.938575      2.226166      1.031944
  H      -9.606997      2.396564      2.870765
42
Coordinates from ORCA-job neb_316_365_CI_MEP.QMRegion E -2345.032259822789
  H      -4.546990      0.431809      2.104184
  O      -4.930034     -0.475754      2.136300
  H      -4.472940     -1.004601      1.467873
  H      -4.870584      2.497371      1.309404
  O      -4.219718      2.083656      1.919019
  H      -3.382413      2.105456      1.392137
  H      -5.766163      0.819336     -1.648512
  O      -4.851568      1.127341     -1.499919
  H      -4.930133      2.008928     -1.087329
  H      -3.152125      5.041538      1.143168
  O      -3.955554      5.378838      0.687938
  H      -4.364433      5.959862      1.382897
  H      -4.357536      2.700364      3.553114
  O      -4.401352      2.863726      4.519804
  H      -4.439332      1.965007      4.915616
  H      -5.047404      4.186711      0.080914
  O      -5.469487      3.320944     -0.110433
  H      -6.407445      3.444210     -0.372003
  H      -7.682203      3.819780     -2.005498
  O      -7.954898      3.225957     -1.268609
  H      -7.837505      2.326967     -1.664611
  H      -6.333552     -0.223228      1.114689
  O      -6.766211     -0.286081      0.237346
  H      -7.654134     -0.615831      0.395367
  H      -9.054304     -1.848916     -2.308891
  O      -8.524087     -1.611309     -1.520024
  H      -8.551263     -2.373168     -0.888773
  H      -7.771776     -3.771052      0.913367
  O      -8.474076     -3.671279      0.244064
  H      -8.368259     -4.442714     -0.346732
  H      -7.921897      0.035219     -1.992103
  O      -7.430534      0.777211     -2.394125
  H      -7.651897      0.756149     -3.351778
  H      -5.679955      3.775218      5.340951
  O      -6.357111      4.139969      5.950641
  H      -6.086759      5.048842      6.107583
  H     -10.538674      4.072074     -2.906057
  O     -10.644878      3.358465     -2.253182
  H      -9.782834      3.343349     -1.800084
  S      -8.958666      1.341802      2.202648
  H      -9.047244      2.129986      1.112814
  H     -10.234858      1.571898      2.573603
42
Coordinates from ORCA-job neb_316_365_CI_MEP.QMRegion E -2345.032437633731
  H      -4.532861      0.430399      2.093613
  O      -4.915855     -0.476127      2.132719
  H      -4.471066     -1.007753      1.458067
  H      -4.870305      2.499611      1.298670
  O      -4.219570      2.087522      1.909779
  H      -3.380987      2.108225      1.384306
  H      -5.767096      0.821693     -1.650664
  O      -4.852130      1.129767     -1.503341
  H      -4.931864      2.012556     -1.094302
  H      -3.154453      5.040622      1.137510
  O      -3.957882      5.378987      0.683524
  H      -4.365401      5.960621      1.378559
  H      -4.352699      2.696802      3.542762
  O      -4.401407      2.860038      4.509626
  H      -4.438565      1.961881      4.906677
  H      -5.056955      4.189220      0.073550
  O      -5.478313      3.322778     -0.114082
  H      -6.415929      3.445044     -0.378742
  H      -7.687302      3.824710     -2.012069
  O      -7.962465      3.232875     -1.274297
  H      -7.843542      2.332449     -1.667040
  H      -6.315389     -0.200484      1.099049
  O      -6.747352     -0.288655      0.224485
  H      -7.651656     -0.556867      0.405539
  H      -9.054033     -1.844921     -2.317825
  O      -8.528498     -1.600849     -1.527271
  H      -8.547409     -2.361449     -0.893952
  H      -7.770295     -3.762442      0.900525
  O      -8.473748     -3.663520      0.232458
  H      -8.368306     -4.435504     -0.358118
  H      -7.921410      0.038209     -1.994424
  O      -7.435251      0.783999     -2.396689
  H      -7.655764      0.760264     -3.354648
  H      -5.672554      3.775436      5.337096
  O      -6.351660      4.137763      5.945866
  H      -6.084198      5.047201      6.104667
  H     -10.548230      4.069173     -2.910705
  O     -10.649574      3.356011     -2.256528
  H      -9.785160      3.348448     -1.807311
  S      -9.230134      1.167883      2.101997
  H      -9.296320      2.031549      1.067535
  H     -10.467571      0.679331      1.880632
42
Coordinates from ORCA-job neb_316_365_CI_MEP.QMRegion E -2345.033508685593
  H      -4.523303      0.424906      2.084559
  O      -4.906240     -0.481444      2.128307
  H      -4.466564     -1.015852      1.452450
  H      -4.873175      2.493639      1.294256
  O      -4.220278      2.082767      1.904470
  H      -3.381669      2.106422      1.378880
  H      -5.767878      0.820590     -1.650629
  O      -4.853689      1.131734     -1.504365
  H      -4.938769      2.013113     -1.093749
  H      -3.160111      5.034774      1.133597
  O      -3.963269      5.374879      0.680962
  H      -4.367643      5.957742      1.376531
  H      -4.351620      2.689831      3.535648
  O      -4.403039      2.854596      4.502438
  H      -4.439033      1.956979      4.900973
  H      -5.079241      4.185070      0.077674
  O      -5.498301      3.317086     -0.104849
  H      -6.437296      3.435023     -0.368597
  H      -7.694019      3.821973     -2.015017
  O      -7.974357      3.232182     -1.277733
  H      -7.852361      2.331119     -1.667353
  H      -6.296051     -0.193570      1.092978
  O      -6.739867     -0.280577      0.224255
  H      -7.649906     -0.517511      0.425618
  H      -9.052379     -1.847562     -2.322480
  O      -8.532651     -1.596522     -1.530078
  H      -8.543051     -2.357770     -0.897114
  H      -7.770466     -3.759406      0.892566
  O      -8.473584     -3.660815      0.224196
  H      -8.368640     -4.433863     -0.365440
  H      -7.919724      0.033645     -1.996491
  O      -7.437803      0.783196     -2.397411
  H      -7.658547      0.760048     -3.355259
  H      -5.675294      3.766275      5.332050
  O      -6.354065      4.129547      5.940884
  H      -6.083719      5.038017      6.100819
  H     -10.557131      4.062748     -2.909238
  O     -10.656274      3.347923     -2.256478
  H      -9.793030      3.344530     -1.804093
  S      -9.601895      0.697011      1.828807
  H      -9.617342      1.690211      0.914977
  H     -10.497606     -0.043289      1.148190
42
Coordinates from ORCA-job neb_316_365_CI_MEP.QMRegion E -2345.035426030832
  H      -4.505789      0.442519      2.082676
  O      -4.886188     -0.465169      2.130747
  H      -4.449522     -0.998413      1.452389
  H      -4.870443      2.514145      1.308094
  O      -4.211774      2.103139      1.913296
  H      -3.375999      2.126517      1.383558
  H      -5.765270      0.846978     -1.634909
  O      -4.850746      1.158761     -1.493008
  H      -4.940814      2.037546     -1.078084
  H      -3.164956      5.045141      1.138012
  O      -3.967757      5.386084      0.685968
  H      -4.369756      5.970593      1.382361
  H      -4.342164      2.701748      3.541792
  O      -4.397645      2.863084      4.509504
  H      -4.430356      1.964379      4.905206
  H      -5.112322      4.203178      0.109299
  O      -5.527936      3.332545     -0.065972
  H      -6.468898      3.445410     -0.327577
  H      -7.705059      3.836596     -1.999836
  O      -7.989392      3.254865     -1.258650
  H      -7.865679      2.351295     -1.639622
  H      -6.272077     -0.170355      1.102368
  O      -6.749144     -0.248753      0.250479
  H      -7.661735     -0.457227      0.486837
  H      -9.039112     -1.852123     -2.334180
  O      -8.528993     -1.587147     -1.539326
  H      -8.509763     -2.347035     -0.902712
  H      -7.758462     -3.734950      0.894017
  O      -8.452907     -3.635867      0.216056
  H      -8.355474     -4.418460     -0.361533
  H      -7.908810      0.049038     -1.985847
  O      -7.437146      0.805536     -2.385106
  H      -7.659048      0.782629     -3.342231
  H      -5.667525      3.776909      5.341566
  O      -6.343965      4.141145      5.952359
  H      -6.063802      5.044597      6.123811
  H     -10.567817      4.062533     -2.878235
  O     -10.667686      3.339613     -2.235471
  H      -9.813434      3.347206     -1.765742
  S     -10.009820     -0.143554      1.272050
  H     -10.068754      0.995843      0.549552
  H     -10.250562     -0.909564      0.189659
