24
Coordinates from ORCA-job neb_64_123_CI_MEP.QMRegion E -1917.030622668823
  H       1.954398     -3.662737      4.182786
  O       1.806948     -4.098834      5.049728
  H       2.355853     -3.573421      5.653818
  H       4.439369     -2.361422      5.567799
  O       4.121911     -2.835230      6.366794
  H       4.498930     -3.728448      6.242383
  H       2.010141     -0.800948      5.234637
  O       1.489119     -1.364756      5.836724
  H       1.476402     -0.964149      6.724866
  H       4.349107     -0.825393      6.949569
  O       4.411405      0.117218      7.152423
  H       5.117914      0.481674      6.592901
  H      -0.137217      3.351279      8.944617
  O       0.116916      2.445960      9.233533
  H      -0.667612      2.173345      9.760171
  H       2.167988      2.173921      8.558392
  O       2.773500      2.306111      7.819614
  H       3.256843      1.466350      7.723217
  H       0.562857      0.417650      8.610038
  O       0.545609     -0.487832      8.275986
  H      -0.406595     -0.658104      8.120733
  S       3.154169     -0.301654     10.542020
  H       3.964438     -0.390329      9.465027
  H       2.147923     -0.936419      9.901974
24
Coordinates from ORCA-job neb_64_123_CI_MEP.QMRegion E -1917.029299684960
  H       1.991247     -3.631003      4.167887
  O       1.858148     -4.064560      5.039128
  H       2.413432     -3.534934      5.633379
  H       4.491852     -2.307210      5.594470
  O       4.176514     -2.782313      6.394412
  H       4.529580     -3.682545      6.259692
  H       2.016937     -0.779096      5.170845
  O       1.512162     -1.331639      5.799891
  H       1.530359     -0.907121      6.673465
  H       4.319810     -0.705111      7.017447
  O       4.337459      0.248681      7.164606
  H       5.076572      0.597578      6.636882
  H      -0.152837      3.373066      8.943737
  O       0.109774      2.472506      9.243946
  H      -0.678916      2.192982      9.761860
  H       2.019725      2.251210      8.519901
  O       2.728653      2.413212      7.883960
  H       3.183820      1.561399      7.754001
  H       0.552941      0.375755      8.707799
  O       0.548529     -0.451070      8.214032
  H      -0.402843     -0.621972      8.055582
  S       3.092469     -1.487007     10.422409
  H       3.721335     -0.680811      9.541856
  H       2.068356     -1.686829      9.564807
24
Coordinates from ORCA-job neb_64_123_CI_MEP.QMRegion E -1917.027244475054
  H       1.982514     -3.640204      4.160133
  O       1.850693     -4.071593      5.032769
  H       2.411036     -3.541696      5.622804
  H       4.472735     -2.308316      5.591524
  O       4.154433     -2.796151      6.382487
  H       4.520728     -3.690636      6.243276
  H       2.016003     -0.789589      5.166131
  O       1.505774     -1.340053      5.792708
  H       1.525058     -0.913078      6.665211
  H       4.299554     -0.726210      7.059430
  O       4.271965      0.236986      7.109880
  H       5.036365      0.567514      6.608783
  H      -0.157649      3.369247      8.941552
  O       0.104948      2.468905      9.243377
  H      -0.686531      2.187685      9.757256
  H       1.998466      2.243335      8.506537
  O       2.720418      2.407996      7.886201
  H       3.162657      1.551271      7.739544
  H       0.537889      0.394098      8.678421
  O       0.547740     -0.438841      8.196159
  H      -0.401314     -0.622065      8.039522
  S       3.151493     -1.816787     10.316088
  H       3.404235     -0.658731      9.673280
  H       2.199701     -2.138534      9.416638
24
Coordinates from ORCA-job neb_64_123_CI_MEP.QMRegion E -1917.027013067781
  H       2.002822     -3.623261      4.175383
  O       1.874333     -4.056224      5.047699
  H       2.438090     -3.530184      5.637982
  H       4.492636     -2.284673      5.626284
  O       4.189118     -2.787769      6.413713
  H       4.543970     -3.682358      6.249279
  H       2.031672     -0.780518      5.197146
  O       1.511924     -1.320351      5.824806
  H       1.532361     -0.881894      6.691918
  H       4.339025     -0.678728      7.175611
  O       4.261732      0.279298      7.098125
  H       5.046544      0.590226      6.617070
  H      -0.151082      3.374841      8.946592
  O       0.112975      2.477527      9.256679
  H      -0.678635      2.198073      9.771219
  H       2.051804      2.291016      8.550442
  O       2.754491      2.454697      7.909546
  H       3.212113      1.602600      7.774328
  H       0.527963      0.491669      8.643895
  O       0.564137     -0.381733      8.237261
  H      -0.377267     -0.596426      8.081147
  S       3.295658     -1.931082     10.242927
  H       3.031921     -0.658372      9.886207
  H       2.478202     -2.396069      9.276998
24
Coordinates from ORCA-job neb_64_123_CI_MEP.QMRegion E -1917.027151734547
  H       1.972741     -3.655437      4.148149
  O       1.842473     -4.083639      5.022870
  H       2.412049     -3.555627      5.606931
  H       4.443613     -2.305682      5.605116
  O       4.129377     -2.835073      6.370391
  H       4.511605     -3.717226      6.194861
  H       2.022841     -0.808801      5.168074
  O       1.496483     -1.354368      5.786197
  H       1.528823     -0.934088      6.660642
  H       4.294358     -0.723081      7.170120
  O       4.175615      0.214232      6.978629
  H       4.991492      0.524636      6.553799
  H      -0.158837      3.356103      8.934504
  O       0.101167      2.454670      9.237145
  H      -0.692320      2.174668      9.750252
  H       2.023273      2.228072      8.511978
  O       2.731285      2.391261      7.877165
  H       3.176852      1.534130      7.727703
  H       0.501116      0.483943      8.561026
  O       0.551010     -0.411538      8.207257
  H      -0.388768     -0.639460      8.056137
  S       3.293435     -2.002251     10.084333
  H       2.602570     -0.866409      9.863362
  H       2.648562     -2.613753      9.070782
24
Coordinates from ORCA-job neb_64_123_CI_MEP.QMRegion E -1917.028833123494
  H       1.957471     -3.669612      4.138068
  O       1.825186     -4.096437      5.013301
  H       2.396156     -3.567626      5.595793
  H       4.412327     -2.309979      5.607172
  O       4.096594     -2.863037      6.354651
  H       4.492931     -3.736255      6.162725
  H       2.021652     -0.821128      5.160486
  O       1.488366     -1.369279      5.770990
  H       1.534089     -0.966177      6.651434
  H       4.257675     -0.726151      7.200235
  O       4.115053      0.178124      6.900713
  H       4.950659      0.486229      6.514391
  H      -0.160478      3.347793      8.932509
  O       0.096441      2.444063      9.230755
  H      -0.697166      2.164893      9.744466
  H       2.015412      2.194825      8.503282
  O       2.717073      2.355782      7.860964
  H       3.155816      1.496054      7.702786
  H       0.491326      0.481156      8.523335
  O       0.540982     -0.430670      8.212489
  H      -0.399010     -0.660917      8.061725
  S       3.206119     -2.028432      9.939182
  H       2.162806     -1.198482      9.727461
  H       2.876194     -2.754245      8.852401
24
Coordinates from ORCA-job neb_64_123_CI_MEP.QMRegion E -1917.030895334577
  H       1.955015     -3.662692      4.173328
  O       1.808823     -4.099393      5.040663
  H       2.353790     -3.571499      5.645147
  H       4.433236     -2.315261      5.609257
  O       4.133639     -2.851129      6.376638
  H       4.506553     -3.736179      6.188347
  H       2.024842     -0.818279      5.181022
  O       1.496238     -1.363465      5.797835
  H       1.523989     -0.937090      6.668277
  H       4.261153     -0.739816      7.113233
  O       4.119807      0.184186      6.883594
  H       4.945092      0.503244      6.483393
  H      -0.154940      3.370138      8.922281
  O       0.105532      2.471527      9.234126
  H      -0.687000      2.199660      9.751756
  H       2.029573      2.228618      8.494603
  O       2.732605      2.376645      7.850840
  H       3.151734      1.508260      7.694085
  H       0.489986      0.472586      8.627651
  O       0.518598     -0.397863      8.213195
  H      -0.426348     -0.611932      8.064258
  S       2.737099     -2.550778      9.740366
  H       1.701689     -1.786570      9.314560
  H       3.151438     -2.774174      8.474789
