36
Coordinates from ORCA-job neb_2_326_CI_MEP.QMRegion E -2202.344407797639
  H      -3.563116      6.350723     -0.531273
  O      -3.353488      7.001995     -1.256954
  H      -3.181130      7.865072     -0.809652
  H      -3.990628      5.772817     -2.603939
  O      -4.289866      4.931887     -2.965035
  H      -4.073343      4.923145     -3.926907
  H      -0.345982      6.832801     -2.327420
  O      -1.101215      7.254914     -2.813294
  H      -1.866654      7.069164     -2.218578
  H      -0.583838      4.507054     -4.129123
  O      -1.351007      5.060012     -4.385944
  H      -1.232516      5.892410     -3.886357
  H      -5.098267      5.620541     -5.654054
  O      -4.466474      4.874148     -5.669959
  H      -3.748426      5.091924     -6.288104
  H      -0.568907      8.832969     -2.142412
  O      -0.381993      9.598444     -1.550461
  H       0.360281      9.292620     -0.982994
  H      -1.787851      9.553466     -0.710386
  O      -2.701125      9.447664     -0.332373
  H      -3.217087     10.130264     -0.774726
  H      -1.499474      5.934602     -7.363114
  O      -2.023326      5.308435     -6.860941
  H      -1.641638      5.294499     -5.926601
  H      -2.249915     11.070156     -3.151847
  O      -3.177322     10.908784     -2.897490
  H      -3.607844     11.743995     -3.106726
  H      -5.917281      7.298690     -4.327253
  O      -6.396522      6.638471     -4.864940
  H      -6.673450      5.935219     -4.226075
  H      -4.339021      9.163125     -3.343966
  O      -4.896640      8.382610     -3.221776
  H      -4.507057      7.926093     -2.456860
  S      -0.019483     12.099598     -3.512069
  H       0.536133     11.319713     -4.461419
  H       0.144967     11.138641     -2.562109
36
Coordinates from ORCA-job neb_2_326_CI_MEP.QMRegion E -2202.342678602043
  H      -3.558581      6.388881     -0.484657
  O      -3.355505      7.058905     -1.195896
  H      -3.212208      7.915185     -0.737773
  H      -4.006482      5.793913     -2.548364
  O      -4.296958      4.951970     -2.911357
  H      -4.086744      4.951455     -3.876269
  H      -0.358205      6.877037     -2.285318
  O      -1.118267      7.308919     -2.757182
  H      -1.880324      7.117703     -2.159483
  H      -0.571559      4.552311     -4.094755
  O      -1.340921      5.103264     -4.349038
  H      -1.231980      5.938096     -3.853293
  H      -5.113589      5.630678     -5.580818
  O      -4.478929      4.885591     -5.597404
  H      -3.762086      5.103380     -6.217981
  H      -0.622850      8.867134     -2.123916
  O      -0.417735      9.693960     -1.622419
  H       0.331991      9.430419     -1.049052
  H      -1.807048      9.697176     -0.688897
  O      -2.686697      9.531224     -0.258442
  H      -3.232698     10.302103     -0.433362
  H      -1.588855      5.964394     -7.325278
  O      -2.062795      5.301973     -6.820221
  H      -1.664984      5.305195     -5.893835
  H      -2.442229     10.668424     -3.041623
  O      -3.362623     10.908709     -2.867611
  H      -3.512433     11.636940     -3.480082
  H      -5.950665      7.307723     -4.267772
  O      -6.409177      6.646535     -4.822606
  H      -6.697283      5.937097     -4.194320
  H      -4.455602      9.227716     -3.252342
  O      -4.889971      8.362855     -3.208665
  H      -4.507744      7.941311     -2.421432
  S      -0.261543     11.315225     -4.621143
  H       0.375734     10.386775     -5.342224
  H       0.065491     10.730102     -3.445258
36
Coordinates from ORCA-job neb_2_326_CI_MEP.QMRegion E -2202.342141783200
  H      -3.621286      6.381353     -0.506587
  O      -3.446493      7.047126     -1.229415
  H      -3.283909      7.905243     -0.779272
  H      -4.039950      5.790955     -2.580596
  O      -4.305383      4.936544     -2.934282
  H      -4.107321      4.933227     -3.901784
  H      -0.413862      6.807833     -2.276638
  O      -1.184251      7.225629     -2.743440
  H      -1.947654      7.041049     -2.143680
  H      -0.599874      4.520957     -4.134662
  O      -1.380819      5.055577     -4.385878
  H      -1.291215      5.882913     -3.875438
  H      -5.149097      5.623126     -5.604711
  O      -4.510537      4.881001     -5.621281
  H      -3.803509      5.089112     -6.256761
  H      -0.691057      8.756517     -2.116909
  O      -0.483374      9.613615     -1.668444
  H       0.282435      9.395600     -1.099730
  H      -1.855354      9.646208     -0.715427
  O      -2.735109      9.495656     -0.278025
  H      -3.277919     10.266374     -0.463476
  H      -1.652150      5.958143     -7.356394
  O      -2.111048      5.279915     -6.858097
  H      -1.714729      5.285181     -5.932337
  H      -2.332559     10.633098     -2.911354
  O      -3.278611     10.825950     -2.946269
  H      -3.336605     11.477486     -3.653517
  H      -5.991022      7.303109     -4.274133
  O      -6.426082      6.631940     -4.837822
  H      -6.715306      5.920290     -4.211225
  H      -4.539448      9.189324     -3.251580
  O      -5.100443      8.408990     -3.130829
  H      -4.694506      7.942534     -2.381780
  S      -0.545519     10.392249     -5.190285
  H       0.510919     11.214064     -5.351781
  H      -0.089566      9.942469     -4.003079
36
Coordinates from ORCA-job neb_2_326_CI_MEP.QMRegion E -2202.342244589133
  H      -3.603772      6.382776     -0.507723
  O      -3.422281      7.048941     -1.228330
  H      -3.273396      7.908845     -0.775177
  H      -4.033802      5.791499     -2.573257
  O      -4.304676      4.939903     -2.929877
  H      -4.105130      4.937870     -3.896855
  H      -0.394844      6.837977     -2.282773
  O      -1.159182      7.258710     -2.758270
  H      -1.925286      7.076732     -2.161273
  H      -0.596769      4.525423     -4.125169
  O      -1.374246      5.065687     -4.376337
  H      -1.277800      5.893591     -3.868214
  H      -5.148110      5.622651     -5.602324
  O      -4.508652      4.881307     -5.617871
  H      -3.801450      5.090458     -6.252556
  H      -0.671259      8.814744     -2.089247
  O      -0.486626      9.652794     -1.604853
  H       0.282976      9.424472     -1.045376
  H      -1.859677      9.653327     -0.691070
  O      -2.747442      9.495635     -0.267080
  H      -3.287844     10.268881     -0.448330
  H      -1.647309      5.959365     -7.351570
  O      -2.106944      5.283613     -6.850605
  H      -1.710043      5.289579     -5.925467
  H      -2.311614     10.704773     -2.897736
  O      -3.265099     10.864590     -2.913814
  H      -3.355388     11.540244     -3.594401
  H      -5.982284      7.303229     -4.279509
  O      -6.425081      6.633068     -4.837182
  H      -6.713086      5.923319     -4.207888
  H      -4.499960      9.200716     -3.260471
  O      -5.039315      8.402779     -3.160829
  H      -4.644044      7.945062     -2.400684
  S      -0.670567     10.443398     -5.263441
  H       0.542740     11.004819     -5.094344
  H      -0.444925      9.535084     -4.295549
36
Coordinates from ORCA-job neb_2_326_CI_MEP.QMRegion E -2202.343702525149
  H      -3.607326      6.359777     -0.525519
  O      -3.425096      7.020157     -1.251726
  H      -3.274908      7.883077     -0.802115
  H      -4.039317      5.773873     -2.591689
  O      -4.309603      4.920567     -2.944769
  H      -4.113763      4.914892     -3.912327
  H      -0.397090      6.817332     -2.302042
  O      -1.162490      7.224019     -2.788138
  H      -1.928807      7.052790     -2.187686
  H      -0.611284      4.496878     -4.144777
  O      -1.391166      5.034025     -4.395671
  H      -1.298344      5.857601     -3.879186
  H      -5.166387      5.601671     -5.619094
  O      -4.520855      4.864906     -5.632541
  H      -3.821816      5.068256     -6.277240
  H      -0.656256      8.814689     -2.114302
  O      -0.486683      9.635556     -1.602468
  H       0.277010      9.397376     -1.038754
  H      -1.869348      9.616221     -0.712552
  O      -2.758885      9.459606     -0.289994
  H      -3.303534     10.222193     -0.502851
  H      -1.658183      5.931377     -7.372232
  O      -2.126379      5.264193     -6.867447
  H      -1.730980      5.268206     -5.941208
  H      -2.370816     10.643686     -3.018373
  O      -3.318118     10.816360     -2.925448
  H      -3.469318     11.509020     -3.578699
  H      -5.987480      7.274325     -4.304740
  O      -6.437691      6.606925     -4.859889
  H      -6.726238      5.899913     -4.226287
  H      -4.511486      9.170069     -3.278275
  O      -5.029884      8.355344     -3.197725
  H      -4.643889      7.905012     -2.428562
  S      -0.811406     10.273463     -5.269369
  H       0.400427     10.696361     -4.862741
  H      -0.742773      9.163423     -4.510169
36
Coordinates from ORCA-job neb_2_326_CI_MEP.QMRegion E -2202.344106549212
  H      -3.609994      6.360552     -0.510365
  O      -3.425367      7.033634     -1.225681
  H      -3.315114      7.889453     -0.764791
  H      -4.040961      5.781056     -2.595067
  O      -4.307591      4.925828     -2.944033
  H      -4.113523      4.920407     -3.912678
  H      -0.400520      6.827774     -2.290675
  O      -1.173240      7.237334     -2.763590
  H      -1.932981      7.061927     -2.156459
  H      -0.607601      4.501980     -4.132101
  O      -1.389979      5.038111     -4.378560
  H      -1.298405      5.859560     -3.860340
  H      -5.163162      5.601928     -5.621384
  O      -4.514567      4.867792     -5.630070
  H      -3.811302      5.075696     -6.269224
  H      -0.675005      8.825048     -2.112749
  O      -0.505330      9.646530     -1.597578
  H       0.267839      9.412273     -1.044389
  H      -1.854573      9.657575     -0.668353
  O      -2.753166      9.502504     -0.260124
  H      -3.215254     10.342530     -0.209122
  H      -1.652417      5.957627     -7.351902
  O      -2.115548      5.279797     -6.856755
  H      -1.722233      5.278435     -5.931014
  H      -2.459000     10.546433     -2.740601
  O      -3.314828     10.805871     -3.105601
  H      -3.076837     11.095829     -3.996372
  H      -5.970306      7.275009     -4.330898
  O      -6.439394      6.606545     -4.867781
  H      -6.722564      5.906262     -4.225207
  H      -4.426619      9.186016     -3.346549
  O      -4.846421      8.309599     -3.341491
  H      -4.547515      7.908953     -2.510222
  S      -1.228445      9.724967     -5.584431
  H      -0.108424      9.911826     -4.858969
  H      -1.626343      8.709997     -4.790806
36
Coordinates from ORCA-job neb_2_326_CI_MEP.QMRegion E -2202.347897656119
  H      -3.554734      6.378853     -0.491945
  O      -3.345647      7.072590     -1.180823
  H      -3.277321      7.912708     -0.692108
  H      -4.015480      5.788189     -2.573158
  O      -4.301101      4.943922     -2.929956
  H      -4.112500      4.944634     -3.902061
  H      -0.342094      6.884659     -2.303194
  O      -1.100941      7.313497     -2.782285
  H      -1.861261      7.144142     -2.179055
  H      -0.586785      4.528832     -4.132019
  O      -1.362476      5.077957     -4.370908
  H      -1.245930      5.901626     -3.863341
  H      -5.144884      5.626797     -5.607834
  O      -4.508024      4.885792     -5.602037
  H      -3.778537      5.088709     -6.222468
  H      -0.620586      8.926755     -2.092314
  O      -0.462210      9.716656     -1.529635
  H       0.313958      9.453228     -0.992487
  H      -1.784317      9.718040     -0.600209
  O      -2.698858      9.600434     -0.205231
  H      -3.007732     10.454890      0.105680
  H      -1.885586      6.120922     -7.258050
  O      -2.159860      5.295955     -6.849627
  H      -1.747885      5.302968     -5.936869
  H      -2.380970     10.666927     -2.754016
  O      -3.082794     10.724316     -3.413747
  H      -2.626928     10.534756     -4.249334
  H      -5.947174      7.311323     -4.279319
  O      -6.423680      6.651950     -4.816487
  H      -6.701729      5.940431     -4.184762
  H      -4.239516      9.213993     -3.376835
  O      -4.608825      8.310975     -3.415416
  H      -4.340313      7.918184     -2.568354
  S      -2.032279      8.719885     -5.914298
  H      -1.099998      8.334407     -5.022264
  H      -3.019030      8.198431     -5.144784
