36
Coordinates from ORCA-job neb_7_458_CI_MEP.QMRegion E -2202.362356842657
  H      -1.617721     -0.842311     -4.573663
  O      -1.114373     -0.612269     -5.383708
  H      -0.372020     -0.074777     -5.070985
  H      -3.311299      1.556929     -4.092280
  O      -4.172261      1.098586     -3.906997
  H      -4.375465      1.230175     -2.939131
  H      -1.132965      1.577159     -3.911775
  O      -1.807448      2.178974     -4.288121
  H      -1.462199      2.545980     -5.127997
  H      -5.198510      5.743826     -5.526851
  O      -4.585039      4.980489     -5.605690
  H      -3.828425      5.270445     -6.144581
  H      -5.578063      3.469429     -5.568385
  O      -6.067590      2.748716     -5.128499
  H      -5.383989      2.260104     -4.630378
  H      -5.235628     -0.149407     -4.655735
  O      -5.853148     -0.848656     -4.940117
  H      -6.694197     -0.390620     -5.100976
  H       2.001410     -0.242411     -7.503452
  O       1.826291      0.208427     -8.368887
  H       2.419693     -0.245715     -8.983579
  H      -1.738882      6.301686     -6.945784
  O      -2.115894      5.458167     -6.680575
  H      -1.840746      5.336373     -5.722699
  H       0.854577      3.012607     -7.164185
  O       1.764923      2.659440     -7.159796
  H       1.799592      1.924609     -7.799762
  H      -1.440531      3.734299     -7.079844
  O      -0.888212      2.992421     -6.781874
  H      -1.117268      2.194256     -7.312667
  H      -0.222147      0.261217     -8.254033
  O      -1.105354      0.545322     -7.965039
  H      -1.265898      0.051639     -7.140218
  S      -4.058761      2.331565     -8.623714
  H      -4.731232      1.650222     -7.670183
  H      -3.146808      1.344854     -8.760805
36
Coordinates from ORCA-job neb_7_458_CI_MEP.QMRegion E -2202.360712888115
  H      -1.643715     -0.861942     -4.535875
  O      -1.125491     -0.640694     -5.341083
  H      -0.394230     -0.093112     -5.022163
  H      -3.344782      1.548847     -4.072547
  O      -4.202440      1.085150     -3.890968
  H      -4.401985      1.213983     -2.920725
  H      -1.162299      1.566038     -3.872579
  O      -1.839068      2.161370     -4.256822
  H      -1.482062      2.546922     -5.083634
  H      -5.222126      5.733813     -5.494308
  O      -4.601998      4.975536     -5.587288
  H      -3.839093      5.292633     -6.102321
  H      -5.603323      3.452944     -5.545829
  O      -6.097381      2.746542     -5.091437
  H      -5.418517      2.253674     -4.590638
  H      -5.267501     -0.153410     -4.630740
  O      -5.882680     -0.854860     -4.915387
  H      -6.725997     -0.397702     -5.069515
  H       1.992380     -0.236223     -7.463230
  O       1.802878      0.215390     -8.327044
  H       2.381754     -0.244112     -8.950477
  H      -1.775055      6.314336     -6.904373
  O      -2.148872      5.466088     -6.650155
  H      -1.865111      5.333524     -5.694604
  H       0.824325      3.018324     -7.113508
  O       1.738463      2.675703     -7.131905
  H       1.763050      1.937447     -7.768502
  H      -1.443015      3.748887     -7.050455
  O      -0.928185      2.995186     -6.717026
  H      -1.138895      2.202250     -7.262031
  H      -0.209156      0.225815     -8.125271
  O      -1.099045      0.522053     -7.870356
  H      -1.300899      0.038537     -7.047047
  S      -3.147254      2.438272     -9.748970
  H      -4.131592      2.055396     -8.908450
  H      -2.408301      1.352804     -9.427966
36
Coordinates from ORCA-job neb_7_458_CI_MEP.QMRegion E -2202.360376796196
  H      -1.639915     -0.858758     -4.538026
  O      -1.122337     -0.637795     -5.343427
  H      -0.389672     -0.091169     -5.025695
  H      -3.339204      1.552626     -4.076023
  O      -4.197763      1.090993     -3.894299
  H      -4.397728      1.219104     -2.924328
  H      -1.156335      1.569490     -3.879141
  O      -1.832314      2.166066     -4.262565
  H      -1.475970      2.549947     -5.090199
  H      -5.217707      5.740974     -5.498454
  O      -4.593922      4.985848     -5.594673
  H      -3.830616      5.310237     -6.103493
  H      -5.603657      3.453621     -5.556028
  O      -6.095106      2.750995     -5.094633
  H      -5.413075      2.258675     -4.597366
  H      -5.261933     -0.151528     -4.637998
  O      -5.877621     -0.853925     -4.918541
  H      -6.720177     -0.397035     -5.076410
  H       1.998309     -0.235284     -7.469386
  O       1.809041      0.216598     -8.332733
  H       2.388054     -0.242283     -8.956748
  H      -1.752289      6.320491     -6.906455
  O      -2.131121      5.472912     -6.656688
  H      -1.854266      5.336767     -5.699073
  H       0.835152      3.020118     -7.125382
  O       1.746717      2.671912     -7.136216
  H       1.773527      1.936735     -7.776404
  H      -1.413955      3.766276     -7.060684
  O      -0.919650      2.999540     -6.726772
  H      -1.125798      2.210407     -7.280503
  H      -0.211723      0.239594     -8.122060
  O      -1.102645      0.531224     -7.865458
  H      -1.300313      0.044762     -7.042469
  S      -2.647468      2.329939    -10.268010
  H      -3.706624      2.392027     -9.435650
  H      -2.182091      1.222387     -9.648744
36
Coordinates from ORCA-job neb_7_458_CI_MEP.QMRegion E -2202.360178622842
  H      -1.630911     -0.853107     -4.548532
  O      -1.116656     -0.629724     -5.354859
  H      -0.379589     -0.088045     -5.038301
  H      -3.326434      1.555766     -4.083424
  O      -4.186414      1.097627     -3.900500
  H      -4.387485      1.226018     -2.931237
  H      -1.144586      1.572390     -3.889165
  O      -1.818041      2.172031     -4.272548
  H      -1.459356      2.553142     -5.099780
  H      -5.206954      5.749006     -5.508211
  O      -4.579726      4.996693     -5.604879
  H      -3.817812      5.324138     -6.111984
  H      -5.598251      3.454626     -5.571807
  O      -6.086217      2.754898     -5.103822
  H      -5.399969      2.263070     -4.611731
  H      -5.249142     -0.150805     -4.651710
  O      -5.866519     -0.853574     -4.926386
  H      -6.707352     -0.396193     -5.090413
  H       2.006582     -0.237460     -7.482909
  O       1.819819      0.214664     -8.346011
  H       2.401531     -0.242143     -8.969489
  H      -1.719788      6.325876     -6.911918
  O      -2.102676      5.478499     -6.667480
  H      -1.836477      5.340472     -5.706433
  H       0.856569      3.020113     -7.147419
  O       1.763586      2.662361     -7.146821
  H       1.793794      1.929992     -7.790583
  H      -1.387452      3.779085     -7.066247
  O      -0.895418      3.006788     -6.742991
  H      -1.105252      2.215063     -7.294074
  H      -0.215533      0.265097     -8.148524
  O      -1.103839      0.553612     -7.878833
  H      -1.291375      0.059076     -7.058275
  S      -2.383747      2.090965    -10.630443
  H      -3.221161      2.699622     -9.765952
  H      -2.141105      1.092813     -9.751761
36
Coordinates from ORCA-job neb_7_458_CI_MEP.QMRegion E -2202.360063113528
  H      -1.626853     -0.850664     -4.561353
  O      -1.116224     -0.623625     -5.368574
  H      -0.374928     -0.087569     -5.051885
  H      -3.320150      1.555422     -4.091191
  O      -4.180294      1.098690     -3.906762
  H      -4.382061      1.228244     -2.938230
  H      -1.137983      1.571757     -3.896183
  O      -1.809298      2.173725     -4.280032
  H      -1.447191      2.554117     -5.105305
  H      -5.201377      5.750562     -5.517225
  O      -4.572206      4.999962     -5.612464
  H      -3.813514      5.327024     -6.123339
  H      -5.597539      3.451290     -5.586903
  O      -6.082663      2.755564     -5.110896
  H      -5.393022      2.263607     -4.623996
  H      -5.242374     -0.152998     -4.664709
  O      -5.861166     -0.856122     -4.934236
  H      -6.700529     -0.398164     -5.103168
  H       2.009329     -0.242046     -7.494295
  O       1.823014      0.210224     -8.356996
  H       2.406334     -0.244418     -8.981025
  H      -1.702766      6.326332     -6.918076
  O      -2.085504      5.478140     -6.675796
  H      -1.827174      5.341870     -5.711964
  H       0.868883      3.016100     -7.163101
  O       1.774074      2.654842     -7.159133
  H       1.805443      1.920653     -7.801241
  H      -1.379050      3.784625     -7.064193
  O      -0.877383      3.012419     -6.755557
  H      -1.096587      2.216292     -7.297842
  H      -0.220194      0.279815     -8.178098
  O      -1.103916      0.574567     -7.899428
  H      -1.290813      0.073320     -7.082904
  S      -2.439433      1.849803    -10.817703
  H      -2.617058      2.905480     -9.996681
  H      -2.205292      1.025452     -9.772207
36
Coordinates from ORCA-job neb_7_458_CI_MEP.QMRegion E -2202.360059954990
  H      -1.630596     -0.850763     -4.565829
  O      -1.121603     -0.622474     -5.373926
  H      -0.379969     -0.087428     -5.056824
  H      -3.323046      1.555230     -4.092526
  O      -4.181696      1.096771     -3.907338
  H      -4.383611      1.227365     -2.939066
  H      -1.139186      1.571069     -3.896108
  O      -1.809951      2.173578     -4.280273
  H      -1.446372      2.555887     -5.103355
  H      -5.203226      5.748079     -5.518368
  O      -4.573949      4.997403     -5.611148
  H      -3.819255      5.321338     -6.129272
  H      -5.603892      3.447111     -5.592530
  O      -6.087356      2.754784     -5.109770
  H      -5.395987      2.263813     -4.624971
  H      -5.244663     -0.153834     -4.666668
  O      -5.863498     -0.857333     -4.934871
  H      -6.702643     -0.399035     -5.104664
  H       2.007505     -0.243611     -7.494461
  O       1.821369      0.207801     -8.358046
  H       2.404797     -0.248001     -8.981252
  H      -1.705895      6.323767     -6.921631
  O      -2.086652      5.475535     -6.676646
  H      -1.829894      5.343209     -5.712285
  H       0.863869      3.013243     -7.161521
  O       1.771417      2.656890     -7.162928
  H       1.802316      1.919003     -7.800738
  H      -1.390392      3.784918     -7.058817
  O      -0.877071      3.015800     -6.759922
  H      -1.104890      2.219237     -7.296385
  H      -0.210286      0.271544     -8.177590
  O      -1.094726      0.577535     -7.914081
  H      -1.300340      0.078287     -7.101015
  S      -2.728800      1.867417    -10.703123
  H      -1.974894      2.879894    -10.225707
  H      -2.288233      1.033543     -9.734524
36
Coordinates from ORCA-job neb_7_458_CI_MEP.QMRegion E -2202.360274330588
  H      -1.621948     -0.851330     -4.556579
  O      -1.110467     -0.625856     -5.363853
  H      -0.370253     -0.088428     -5.047791
  H      -3.310688      1.557189     -4.090867
  O      -4.169976      1.099357     -3.904615
  H      -4.372859      1.230544     -2.936802
  H      -1.131175      1.574464     -3.898359
  O      -1.801092      2.177530     -4.281973
  H      -1.438883      2.557015     -5.107715
  H      -5.191804      5.750352     -5.519819
  O      -4.564471      4.998485     -5.608175
  H      -3.808163      5.316880     -6.128793
  H      -5.592555      3.448837     -5.587090
  O      -6.077400      2.754454     -5.107854
  H      -5.386556      2.264893     -4.621150
  H      -5.233580     -0.150975     -4.662669
  O      -5.853802     -0.852998     -4.931983
  H      -6.692092     -0.393528     -5.101992
  H       2.019090     -0.240577     -7.493748
  O       1.838092      0.209785     -8.359346
  H       2.423223     -0.249339     -8.978558
  H      -1.693960      6.317042     -6.930531
  O      -2.077099      5.471464     -6.679705
  H      -1.819994      5.342934     -5.715940
  H       0.864871      3.010244     -7.160016
  O       1.775462      2.659048     -7.162725
  H       1.810021      1.920692     -7.799097
  H      -1.384817      3.777680     -7.072024
  O      -0.871432      3.010538     -6.767066
  H      -1.100868      2.216068     -7.304047
  H      -0.192817      0.249031     -8.163576
  O      -1.078309      0.555095     -7.905589
  H      -1.282103      0.068031     -7.084735
  S      -2.613983      2.132005    -10.549931
  H      -1.375574      2.654957    -10.439095
  H      -2.301436      1.125603     -9.704054
36
Coordinates from ORCA-job neb_7_458_CI_MEP.QMRegion E -2202.360404136519
  H      -1.610747     -0.852662     -4.545797
  O      -1.097168     -0.630442     -5.352403
  H      -0.357993     -0.090194     -5.038498
  H      -3.294738      1.558961     -4.089351
  O      -4.156258      1.103606     -3.902744
  H      -4.360332      1.234933     -2.935471
  H      -1.121770      1.577354     -3.900948
  O      -1.790618      2.181443     -4.284628
  H      -1.429046      2.556816     -5.113179
  H      -5.177611      5.755391     -5.523460
  O      -4.551459      5.002829     -5.608991
  H      -3.790593      5.318641     -6.125451
  H      -5.576962      3.452565     -5.580795
  O      -6.063238      2.754434     -5.108124
  H      -5.373148      2.265345     -4.619653
  H      -5.219130     -0.148762     -4.660633
  O      -5.841172     -0.849155     -4.930566
  H      -6.678084     -0.388530     -5.102180
  H       2.032092     -0.237622     -7.496083
  O       1.857174      0.210922     -8.363962
  H       2.445666     -0.251386     -8.978021
  H      -1.671350      6.305557     -6.942935
  O      -2.061394      5.465282     -6.685427
  H      -1.804655      5.339958     -5.721729
  H       0.873903      3.007158     -7.163164
  O       1.785365      2.657269     -7.164225
  H       1.823875      1.919726     -7.801087
  H      -1.358233      3.770279     -7.088706
  O      -0.856419      3.002745     -6.766101
  H      -1.077754      2.210476     -7.309375
  H      -0.182909      0.230883     -8.150214
  O      -1.067316      0.536189     -7.889675
  H      -1.263899      0.057194     -7.062320
  S      -2.069560      2.392739    -10.552588
  H      -0.721948      2.338540    -10.525714
  H      -2.156244      1.306513     -9.755149
36
Coordinates from ORCA-job neb_7_458_CI_MEP.QMRegion E -2202.360588065131
  H      -1.608133     -0.853709     -4.542065
  O      -1.095218     -0.632585     -5.349399
  H      -0.356603     -0.090463     -5.037632
  H      -3.291621      1.559054     -4.089213
  O      -4.154370      1.104902     -3.903021
  H      -4.358423      1.235896     -2.935769
  H      -1.121156      1.577961     -3.900631
  O      -1.790425      2.181658     -4.283791
  H      -1.429047      2.557070     -5.113388
  H      -5.175611      5.757078     -5.524273
  O      -4.549576      5.004470     -5.610756
  H      -3.786950      5.321318     -6.123838
  H      -5.574409      3.453396     -5.579703
  O      -6.060871      2.754547     -5.108544
  H      -5.370850      2.265439     -4.619603
  H      -5.216570     -0.148210     -4.660152
  O      -5.838893     -0.848331     -4.930217
  H      -6.675727     -0.387608     -5.101913
  H       2.032561     -0.235146     -7.498055
  O       1.862188      0.210609     -8.368529
  H       2.454529     -0.254751     -8.976750
  H      -1.661325      6.296521     -6.950419
  O      -2.058478      5.460884     -6.688671
  H      -1.801712      5.336918     -5.724860
  H       0.878698      3.009638     -7.166238
  O       1.788876      2.656261     -7.163648
  H       1.827985      1.922161     -7.803567
  H      -1.337885      3.769350     -7.088384
  O      -0.850808      2.998488     -6.752160
  H      -1.062088      2.207906     -7.302926
  H      -0.195056      0.231314     -8.137818
  O      -1.079087      0.538536     -7.880204
  H      -1.276838      0.059588     -7.052949
  S      -1.262915      2.527005    -10.615789
  H      -0.023962      2.020614    -10.447977
  H      -1.802934      1.516716     -9.903144
36
Coordinates from ORCA-job neb_7_458_CI_MEP.QMRegion E -2202.360923904715
  H      -1.622253     -0.845458     -4.549633
  O      -1.114258     -0.623277     -5.359854
  H      -0.377013     -0.078091     -5.049407
  H      -3.315635      1.566593     -4.091310
  O      -4.176018      1.108763     -3.906864
  H      -4.378166      1.238865     -2.939070
  H      -1.135864      1.583071     -3.902410
  O      -1.808383      2.184201     -4.283046
  H      -1.448687      2.567130     -5.110203
  H      -5.197914      5.754571     -5.529614
  O      -4.573464      5.000848     -5.621926
  H      -3.815647      5.319024     -6.140814
  H      -5.600423      3.457190     -5.592091
  O      -6.084848      2.760502     -5.115372
  H      -5.393855      2.271725     -4.627436
  H      -5.238545     -0.143945     -4.656560
  O      -5.856628     -0.847670     -4.927464
  H      -6.696782     -0.390466     -5.094525
  H       2.024026     -0.231898     -7.484084
  O       1.862997      0.203812     -8.362667
  H       2.456944     -0.276207     -8.958181
  H      -1.685778      6.294035     -6.961713
  O      -2.087058      5.463062     -6.691704
  H      -1.824239      5.341473     -5.729578
  H       0.873604      3.025806     -7.171371
  O       1.778267      2.660531     -7.146849
  H       1.820564      1.938674     -7.797776
  H      -1.359629      3.777301     -7.080507
  O      -0.871010      3.007121     -6.746008
  H      -1.073603      2.214985     -7.299654
  H      -0.217131      0.250311     -8.134575
  O      -1.102481      0.566711     -7.895378
  H      -1.320153      0.080111     -7.077977
  S      -0.107869      2.519247    -10.617482
  H       0.839355      1.684693    -10.143636
  H      -1.088224      1.727846    -10.136538
