27
Coordinates from ORCA-job neb_36_76_CI_MEP.QMRegion E -1988.358008799358
  H       5.135564     -2.003411     -5.602534
  O       5.495234     -2.781051     -6.108086
  H       5.184469     -3.565603     -5.593695
  H       8.164577     -1.455116     -5.991247
  O       8.152535     -2.289370     -5.485985
  H       7.250280     -2.627240     -5.651569
  H       8.097163      0.709194     -7.214024
  O       7.573455     -0.099433     -7.083667
  H       6.638607      0.188469     -6.954708
  H       4.931559     -1.480155     -9.217414
  O       4.013335     -1.145283     -9.447691
  H       3.947657     -1.190132    -10.403244
  H       6.932635     -1.361735     -8.384789
  O       6.342731     -2.086198     -8.660387
  H       6.080223     -2.472079     -7.800539
  H       4.506866      0.126447     -7.885013
  O       4.872605      0.222165     -6.993707
  H       4.610253      1.127711     -6.714263
  H       6.454750      1.475997     -4.164985
  O       6.189062      0.840275     -3.478630
  H       6.222711      1.319368     -2.623405
  H       6.644955      3.541217     -4.540298
  O       6.745311      2.922300     -5.299215
  H       5.894212      2.980667     -5.769031
  S       9.375275      2.716362     -7.231863
  H       8.373191      3.064270     -6.380715
  H       8.779851      3.317223     -8.280695
27
Coordinates from ORCA-job neb_36_76_CI_MEP.QMRegion E -1988.352000829314
  H       5.134284     -2.020738     -5.616200
  O       5.486342     -2.794794     -6.131150
  H       5.176831     -3.579123     -5.615999
  H       8.087395     -1.467177     -5.965227
  O       8.150218     -2.316072     -5.487405
  H       7.263007     -2.693120     -5.641115
  H       7.866588      0.687343     -7.047777
  O       7.356956     -0.122538     -6.913440
  H       6.400344      0.131356     -6.863767
  H       4.901339     -1.451416     -9.263815
  O       3.977344     -1.132962     -9.488298
  H       3.908544     -1.160689    -10.444190
  H       6.881978     -1.304845     -8.370214
  O       6.329379     -2.036788     -8.699540
  H       6.070774     -2.470628     -7.862938
  H       4.386695      0.141201     -7.915711
  O       4.717824      0.208900     -7.008627
  H       4.502835      1.127377     -6.723592
  H       6.450352      1.448796     -4.151975
  O       6.178965      0.813425     -3.462450
  H       6.207286      1.293790     -2.608722
  H       6.693601      3.467456     -4.547867
  O       6.784847      2.826616     -5.285894
  H       5.932780      2.899737     -5.748132
  S       9.728826      1.947122     -8.034185
  H       9.795121      2.556378     -6.834088
  H       8.725790      2.747000     -8.445709
27
Coordinates from ORCA-job neb_36_76_CI_MEP.QMRegion E -1988.348350253605
  H       5.149502     -2.030971     -5.635924
  O       5.500048     -2.800104     -6.156959
  H       5.195294     -3.587861     -5.642698
  H       8.102566     -1.441515     -5.988198
  O       8.169647     -2.293863     -5.517774
  H       7.289906     -2.682720     -5.680735
  H       7.700528      0.855614     -6.690136
  O       7.360505     -0.021656     -6.888216
  H       6.374998      0.093733     -6.903815
  H       4.922857     -1.498932     -9.348363
  O       4.000452     -1.181712     -9.554945
  H       3.906629     -1.237547    -10.507994
  H       6.989732     -1.375846     -8.532153
  O       6.380262     -2.090599     -8.764429
  H       6.137483     -2.462660     -7.894541
  H       4.403671      0.145580     -8.000896
  O       4.707103      0.198225     -7.083254
  H       4.499027      1.114540     -6.787203
  H       6.451178      1.439116     -4.169709
  O       6.188962      0.808826     -3.472683
  H       6.220283      1.295364     -2.622467
  H       6.720562      3.442438     -4.594015
  O       6.786129      2.789173     -5.322279
  H       5.929907      2.874573     -5.776780
  S      10.022494      1.672538     -8.635372
  H      10.205305      1.867695     -7.313266
  H       8.808316      2.257900     -8.604970
27
Coordinates from ORCA-job neb_36_76_CI_MEP.QMRegion E -1988.349025260608
  H       5.147441     -2.032095     -5.629387
  O       5.502923     -2.798291     -6.152535
  H       5.201072     -3.590780     -5.642582
  H       8.084832     -1.381239     -5.962127
  O       8.168998     -2.256674     -5.535378
  H       7.290764     -2.650732     -5.695416
  H       7.585087      0.980987     -6.334205
  O       7.410946      0.132009     -6.759334
  H       6.429392      0.140780     -6.883194
  H       4.915416     -1.522178     -9.358529
  O       3.996624     -1.201452     -9.561947
  H       3.891828     -1.275716    -10.512724
  H       7.051877     -1.474988     -8.606902
  O       6.370212     -2.140462     -8.754691
  H       6.141664     -2.451426     -7.856160
  H       4.417586      0.133964     -8.011595
  O       4.728998      0.187351     -7.096968
  H       4.509090      1.099236     -6.798118
  H       6.417521      1.435243     -4.146613
  O       6.174588      0.796689     -3.450901
  H       6.209722      1.280272     -2.598456
  H       6.715074      3.420486     -4.578525
  O       6.765921      2.760118     -5.302034
  H       5.916569      2.863068     -5.766713
  S      10.011763      1.491457     -8.895334
  H      10.218013      1.128807     -7.612965
  H       8.732947      1.825370     -8.631811
27
Coordinates from ORCA-job neb_36_76_CI_MEP.QMRegion E -1988.350317574879
  H       5.149816     -2.029997     -5.630948
  O       5.506544     -2.796105     -6.153410
  H       5.205786     -3.588798     -5.643225
  H       8.080179     -1.350773     -5.939936
  O       8.172686     -2.240403     -5.542329
  H       7.294871     -2.634846     -5.704133
  H       7.560252      1.028221     -6.209237
  O       7.444023      0.189936     -6.673046
  H       6.474193      0.168212     -6.859863
  H       4.910312     -1.549534     -9.375873
  O       3.995327     -1.216303     -9.569304
  H       3.871745     -1.310820    -10.516813
  H       7.102628     -1.602395     -8.703155
  O       6.356735     -2.208087     -8.779548
  H       6.150899     -2.468658     -7.860214
  H       4.444271      0.130727     -8.021467
  O       4.755029      0.185892     -7.107687
  H       4.523606      1.094210     -6.807335
  H       6.403159      1.435054     -4.135914
  O       6.168187      0.792813     -3.441429
  H       6.205152      1.274825     -2.588049
  H       6.705890      3.418658     -4.564609
  O       6.756776      2.759131     -5.289382
  H       5.910646      2.864345     -5.759558
  S       9.799761      0.881344     -9.151066
  H      10.135766      0.417781     -7.930174
  H       8.644107      1.379071     -8.668325
27
Coordinates from ORCA-job neb_36_76_CI_MEP.QMRegion E -1988.353678620415
  H       5.155300     -2.034841     -5.637954
  O       5.512992     -2.800386     -6.159098
  H       5.212418     -3.591780     -5.647268
  H       8.085060     -1.340440     -5.928775
  O       8.176203     -2.237336     -5.547953
  H       7.297389     -2.628941     -5.714443
  H       7.533222      1.069362     -6.130815
  O       7.460610      0.231271     -6.607458
  H       6.502967      0.181948     -6.838314
  H       4.916793     -1.588739     -9.397896
  O       4.003280     -1.241833     -9.576186
  H       3.853194     -1.360799    -10.516403
  H       7.167297     -1.747194     -8.842503
  O       6.360455     -2.277672     -8.833097
  H       6.196193     -2.495851     -7.896107
  H       4.468166      0.111369     -8.029053
  O       4.773822      0.176412     -7.113536
  H       4.531388      1.082444     -6.819250
  H       6.393753      1.429266     -4.128091
  O       6.163531      0.786370     -3.433186
  H       6.201842      1.268082     -2.579870
  H       6.696428      3.412696     -4.554496
  O       6.748067      2.754285     -5.280340
  H       5.903481      2.858721     -5.753980
  S       9.393306      0.102373     -9.322857
  H      10.041379     -0.285182     -8.204623
  H       8.512523      0.809179     -8.582824
27
Coordinates from ORCA-job neb_36_76_CI_MEP.QMRegion E -1988.359151146290
  H       5.167088     -2.010006     -5.633686
  O       5.534823     -2.778142     -6.145352
  H       5.235930     -3.567021     -5.630320
  H       8.127929     -1.228556     -5.906421
  O       8.195711     -2.145215     -5.572531
  H       7.311020     -2.514930     -5.765592
  H       7.656730      1.233459     -6.223560
  O       7.572963      0.362174     -6.636805
  H       6.613462      0.306697     -6.870294
  H       4.843021     -1.590491     -9.381054
  O       3.968590     -1.135948     -9.546008
  H       3.840044     -1.151525    -10.496465
  H       7.018276     -2.045104     -9.048579
  O       6.153928     -2.472237     -8.911336
  H       6.075559     -2.604513     -7.948152
  H       4.554807      0.137851     -8.014804
  O       4.888405      0.216658     -7.108433
  H       4.603962      1.108251     -6.804724
  H       6.421994      1.447793     -4.142919
  O       6.181234      0.806815     -3.450744
  H       6.218180      1.288255     -2.596903
  H       6.712451      3.462945     -4.557025
  O       6.765458      2.818872     -5.295378
  H       5.912488      2.916037     -5.754416
  S       9.048571     -0.895263     -9.289751
  H       9.639021     -1.706822     -8.386782
  H       8.558799     -0.090846     -8.304083
