24
Coordinates from ORCA-job neb_20_210_CI_MEP.QMRegion E -1917.026285894368
  H       3.344813     -6.072308      3.019754
  O       3.759901     -5.877914      2.137312
  H       3.035885     -5.517237      1.576650
  H       2.300789     -5.556848      4.771541
  O       2.670606     -6.439904      4.485667
  H       1.902726     -6.998069      4.303733
  H       5.677973     -5.252335      4.732085
  O       5.225004     -5.171497      5.604880
  H       4.444765     -5.728875      5.557194
  H       6.616908     -5.857429      0.681610
  O       6.247032     -6.591506      1.229410
  H       5.319368     -6.315373      1.384632
  H       5.752935     -7.902465      0.038553
  O       5.495655     -8.655016     -0.527884
  H       4.648961     -8.377396     -0.927812
  H       6.791244     -5.776489      2.686955
  O       6.828596     -5.175682      3.458386
  H       7.722504     -5.254192      3.851760
  H       3.127048     -9.051376      1.874495
  O       2.579529     -8.397903      1.419698
  H       3.088029     -7.579869      1.560731
  S       5.292511     -9.287335      3.407107
  H       5.016007     -8.301613      4.285038
  H       6.016924     -8.463472      2.621234
24
Coordinates from ORCA-job neb_20_210_CI_MEP.QMRegion E -1917.024817496612
  H       3.337853     -6.077203      3.020941
  O       3.759112     -5.883764      2.142411
  H       3.038912     -5.521317      1.577773
  H       2.276338     -5.568419      4.769126
  O       2.642398     -6.451516      4.482166
  H       1.873242     -7.004053      4.285242
  H       5.682823     -5.268302      4.732206
  O       5.221267     -5.187573      5.601240
  H       4.421504     -5.714389      5.531007
  H       6.617593     -5.861609      0.685137
  O       6.262016     -6.597542      1.238783
  H       5.332731     -6.332386      1.395094
  H       5.763365     -7.907782      0.050311
  O       5.490847     -8.640670     -0.535273
  H       4.653968     -8.336703     -0.936704
  H       6.792831     -5.782689      2.683410
  O       6.831760     -5.187901      3.461748
  H       7.727961     -5.264181      3.849246
  H       3.109460     -9.081646      1.794485
  O       2.582440     -8.381217      1.393660
  H       3.114408     -7.584654      1.569473
  S       5.146962     -9.300120      3.962189
  H       4.682999     -8.304425      4.744600
  H       6.088294     -8.508735      3.407026
24
Coordinates from ORCA-job neb_20_210_CI_MEP.QMRegion E -1917.022822181322
  H       3.325209     -6.081406      3.028464
  O       3.749993     -5.893567      2.151088
  H       3.032852     -5.530937      1.582396
  H       2.255571     -5.574066      4.774361
  O       2.616045     -6.459536      4.488047
  H       1.844761     -7.005606      4.281899
  H       5.681506     -5.269862      4.727092
  O       5.214222     -5.186590      5.593496
  H       4.410611     -5.705085      5.515781
  H       6.613061     -5.859936      0.683971
  O       6.260685     -6.597714      1.236084
  H       5.332604     -6.334079      1.397339
  H       5.767706     -7.912492      0.053505
  O       5.487577     -8.640791     -0.536050
  H       4.656534     -8.326004     -0.939885
  H       6.792327     -5.797685      2.686230
  O       6.832300     -5.197241      3.461589
  H       7.728647     -5.269803      3.847901
  H       3.088777     -9.111672      1.700679
  O       2.573139     -8.367452      1.374399
  H       3.128670     -7.593892      1.580073
  S       5.080694     -9.291906      4.556484
  H       4.387864     -8.283688      5.123527
  H       6.085256     -8.469944      4.186945
24
Coordinates from ORCA-job neb_20_210_CI_MEP.QMRegion E -1917.021063894018
  H       3.309387     -6.089651      3.021847
  O       3.741243     -5.904410      2.147594
  H       3.028781     -5.536165      1.576384
  H       2.232503     -5.573678      4.768567
  O       2.584372     -6.461745      4.479695
  H       1.807302     -6.999483      4.272682
  H       5.682128     -5.252921      4.720189
  O       5.215055     -5.178309      5.587550
  H       4.396453     -5.670228      5.493245
  H       6.608434     -5.865875      0.675417
  O       6.252704     -6.603191      1.225396
  H       5.325187     -6.337723      1.384044
  H       5.763289     -7.925404      0.048953
  O       5.486572     -8.658659     -0.536237
  H       4.657220     -8.347152     -0.946787
  H       6.786790     -5.794359      2.684293
  O       6.829089     -5.184984      3.451480
  H       7.724525     -5.260441      3.840365
  H       3.084451     -9.130131      1.650153
  O       2.563900     -8.375793      1.361354
  H       3.125339     -7.604668      1.563782
  S       5.036817     -9.244956      5.306537
  H       4.148343     -8.245651      5.484713
  H       6.008600     -8.385343      4.934162
24
Coordinates from ORCA-job neb_20_210_CI_MEP.QMRegion E -1917.020875671025
  H       3.299386     -6.097180      3.036352
  O       3.732011     -5.912212      2.162920
  H       3.020833     -5.544552      1.589793
  H       2.215809     -5.585008      4.780913
  O       2.564869     -6.474644      4.495379
  H       1.787311     -7.008260      4.278523
  H       5.679727     -5.269338      4.730506
  O       5.210008     -5.191772      5.596908
  H       4.387046     -5.675491      5.497623
  H       6.604540     -5.865045      0.686959
  O       6.248936     -6.605089      1.233154
  H       5.322021     -6.340859      1.395022
  H       5.763642     -7.927861      0.056890
  O       5.482675     -8.657505     -0.531004
  H       4.656381     -8.338521     -0.942161
  H       6.781287     -5.812899      2.704238
  O       6.825101     -5.196012      3.465177
  H       7.721030     -5.270813      3.852728
  H       3.075099     -9.143547      1.607039
  O       2.559133     -8.372456      1.357975
  H       3.131383     -7.613447      1.576201
  S       4.930912     -9.098820      5.812177
  H       3.947890     -8.179645      5.719976
  H       5.883676     -8.171506      5.580876
24
Coordinates from ORCA-job neb_20_210_CI_MEP.QMRegion E -1917.021030575182
  H       3.279948     -6.098308      3.062154
  O       3.712511     -5.912257      2.189253
  H       3.003241     -5.546736      1.612633
  H       2.195720     -5.599297      4.803003
  O       2.542232     -6.491019      4.523352
  H       1.764968     -7.020840      4.295467
  H       5.668167     -5.299744      4.760949
  O       5.203089     -5.219604      5.630410
  H       4.373558     -5.692407      5.531006
  H       6.593262     -5.850754      0.705936
  O       6.236641     -6.590396      1.252216
  H       5.309299     -6.328889      1.414012
  H       5.762286     -7.913038      0.063889
  O       5.479723     -8.640028     -0.526240
  H       4.655236     -8.316664     -0.937800
  H       6.763833     -5.815103      2.731731
  O       6.808261     -5.196888      3.491802
  H       7.705885     -5.272157      3.874969
  H       3.060847     -9.142563      1.575344
  O       2.552722     -8.358594      1.353136
  H       3.130116     -7.610155      1.594688
  S       4.825380     -8.930676      6.184766
  H       3.797689     -8.105228      5.896501
  H       5.713892     -7.919822      6.082110
24
Coordinates from ORCA-job neb_20_210_CI_MEP.QMRegion E -1917.020746535952
  H       3.282631     -6.107991      3.064621
  O       3.716040     -5.926083      2.191439
  H       3.007828     -5.561175      1.613276
  H       2.193690     -5.594539      4.803197
  O       2.539369     -6.489111      4.531085
  H       1.760973     -7.017265      4.303797
  H       5.697048     -5.314948      4.782153
  O       5.208870     -5.221748      5.638783
  H       4.372720     -5.675737      5.509066
  H       6.598734     -5.869086      0.705229
  O       6.242566     -6.608192      1.251688
  H       5.316042     -6.345322      1.414989
  H       5.762931     -7.937375      0.071794
  O       5.481367     -8.663733     -0.519805
  H       4.655022     -8.341131     -0.928235
  H       6.769628     -5.833186      2.744488
  O       6.816052     -5.210715      3.500131
  H       7.717066     -5.281908      3.876980
  H       3.060644     -9.165046      1.541245
  O       2.553800     -8.372977      1.346366
  H       3.137414     -7.632777      1.596917
  S       4.649071     -8.604948      6.814150
  H       3.632358     -7.965549      6.197910
  H       5.446955     -7.520814      6.699749
