24
Coordinates from ORCA-job neb_36_301_CI_MEP.QMRegion E -1917.024970988651
  H       7.815577      0.771517     -7.017522
  O       7.370229     -0.079548     -6.920705
  H       6.402885      0.057644     -6.777749
  H       3.404125      3.473415     -3.580747
  O       3.194044      4.427823     -3.491685
  H       2.213654      4.404588     -3.526873
  H       3.411385      2.785115     -6.618842
  O       4.259032      2.506736     -6.227481
  H       4.032237      2.236641     -5.308330
  H       6.533574      1.440389     -4.174597
  O       6.210968      0.817155     -3.498552
  H       6.231478      1.292430     -2.645209
  H       4.169258      6.247143     -3.952259
  O       4.793828      6.979743     -3.845219
  H       5.610251      6.535637     -3.589252
  H       6.703824      3.519740     -4.479413
  O       6.855050      2.916528     -5.234217
  H       6.029360      2.973406     -5.747182
  H       5.245112      4.281999     -2.814542
  O       6.210053      4.293639     -2.844671
  H       6.459964      3.641425     -2.165124
  S       9.483283      2.435315     -7.332960
  H       8.589821      3.026453     -6.502400
  H       8.887841      2.924556     -8.440057
24
Coordinates from ORCA-job neb_36_301_CI_MEP.QMRegion E -1917.022468549278
  H       7.765064      0.877510     -6.885664
  O       7.393120     -0.008770     -6.930673
  H       6.417791      0.065920     -6.782775
  H       3.401123      3.459153     -3.575428
  O       3.191073      4.413543     -3.482580
  H       2.210542      4.390169     -3.517989
  H       3.406210      2.788316     -6.625311
  O       4.252508      2.506556     -6.233573
  H       4.024541      2.236661     -5.315222
  H       6.517291      1.423817     -4.169414
  O       6.203981      0.793020     -3.492064
  H       6.224759      1.265289     -2.638302
  H       4.178830      6.195542     -3.907795
  O       4.817814      6.915224     -3.795581
  H       5.609448      6.455556     -3.492299
  H       6.660897      3.461236     -4.421057
  O       6.817753      2.867600     -5.182388
  H       6.002731      2.941805     -5.708445
  H       5.236122      4.219064     -2.795486
  O       6.200359      4.258371     -2.818131
  H       6.461057      3.606124     -2.141109
  S       9.285824      3.354999     -7.335852
  H       8.377722      3.950351     -6.533716
  H       8.493429      3.484988     -8.418533
24
Coordinates from ORCA-job neb_36_301_CI_MEP.QMRegion E -1917.022111015769
  H       7.646178      0.942506     -6.606041
  O       7.362848      0.058549     -6.850525
  H       6.376328      0.058526     -6.748976
  H       3.400153      3.468213     -3.566479
  O       3.188157      4.421511     -3.474850
  H       2.207304      4.397103     -3.505385
  H       3.394944      2.797328     -6.624833
  O       4.238172      2.507813     -6.230958
  H       4.005107      2.241897     -5.312644
  H       6.479942      1.448854     -4.166629
  O       6.195081      0.806035     -3.490889
  H       6.213120      1.275643     -2.634870
  H       4.206750      6.227207     -3.859114
  O       4.861569      6.929545     -3.734143
  H       5.624012      6.455803     -3.380589
  H       6.656664      3.484495     -4.426188
  O       6.788072      2.910570     -5.207677
  H       5.949902      2.994169     -5.697937
  H       5.219285      4.237727     -2.736475
  O       6.183067      4.267949     -2.786196
  H       6.455715      3.614977     -2.114757
  S       9.037232      4.468122     -7.488522
  H       8.176588      4.372702     -6.452004
  H       8.194341      3.784499     -8.292347
24
Coordinates from ORCA-job neb_36_301_CI_MEP.QMRegion E -1917.021411268743
  H       7.610670      0.950499     -6.481125
  O       7.360366      0.082225     -6.809146
  H       6.372235      0.057259     -6.728061
  H       3.394197      3.474242     -3.559466
  O       3.187451      4.428977     -3.472845
  H       2.206661      4.409841     -3.503831
  H       3.401136      2.808712     -6.621966
  O       4.241658      2.514364     -6.226323
  H       4.005637      2.251329     -5.308040
  H       6.472902      1.449462     -4.159969
  O       6.191200      0.809065     -3.480615
  H       6.212156      1.281905     -2.625774
  H       4.220237      6.246353     -3.846960
  O       4.884464      6.938764     -3.717275
  H       5.628836      6.457700     -3.335387
  H       6.716265      3.460807     -4.474380
  O       6.811120      2.867698     -5.244449
  H       5.965516      2.967936     -5.719157
  H       5.243577      4.232749     -2.779772
  O       6.207732      4.273028     -2.810746
  H       6.472825      3.629864     -2.127485
  S       8.648836      5.072056     -7.491475
  H       7.853294      4.998166     -6.406226
  H       8.209385      3.873530     -7.926221
24
Coordinates from ORCA-job neb_36_301_CI_MEP.QMRegion E -1917.021857627425
  H       7.589685      0.945166     -6.499611
  O       7.350441      0.070903     -6.818841
  H       6.361225      0.041235     -6.740786
  H       3.384042      3.467055     -3.567061
  O       3.175823      4.421253     -3.475687
  H       2.194686      4.398534     -3.505293
  H       3.397452      2.802764     -6.627732
  O       4.236686      2.509072     -6.228558
  H       3.998801      2.245446     -5.311144
  H       6.465227      1.435526     -4.169890
  O       6.185906      0.801893     -3.482855
  H       6.208458      1.279519     -2.631244
  H       4.192113      6.225844     -3.847671
  O       4.873545      6.901739     -3.717810
  H       5.596504      6.402877     -3.317071
  H       6.747076      3.430772     -4.522303
  O       6.815950      2.818747     -5.278459
  H       5.966775      2.931826     -5.744936
  H       5.219970      4.185266     -2.815259
  O       6.183353      4.245127     -2.834943
  H       6.452443      3.613693     -2.142412
  S       8.096679      5.418656     -7.448290
  H       7.281939      5.464834     -6.376149
  H       8.102026      4.071030     -7.415747
24
Coordinates from ORCA-job neb_36_301_CI_MEP.QMRegion E -1917.023054520832
  H       7.624541      0.949712     -6.604160
  O       7.356158      0.059600     -6.844422
  H       6.368511      0.054814     -6.747219
  H       3.351922      3.470674     -3.563247
  O       3.150797      4.426181     -3.470183
  H       2.169044      4.410615     -3.497058
  H       3.420785      2.825190     -6.620362
  O       4.256862      2.523074     -6.221957
  H       4.014987      2.261752     -5.305617
  H       6.479268      1.437993     -4.154895
  O       6.183994      0.804081     -3.474897
  H       6.203881      1.278066     -2.620922
  H       4.145198      6.195238     -3.814384
  O       4.842159      6.860229     -3.705909
  H       5.540539      6.362633     -3.261228
  H       6.776839      3.443905     -4.489484
  O       6.863215      2.834057     -5.245845
  H       6.027968      2.955492     -5.733283
  H       5.207519      4.142151     -2.847388
  O       6.166042      4.252961     -2.822595
  H       6.436927      3.627499     -2.125368
  S       7.400548      5.808256     -7.313190
  H       6.740446      5.909537     -6.141733
  H       7.866413      4.584167     -6.992262
24
Coordinates from ORCA-job neb_36_301_CI_MEP.QMRegion E -1917.024507369264
  H       7.676922      0.955183     -6.582715
  O       7.399413      0.075350     -6.853333
  H       6.414175      0.075921     -6.757490
  H       3.372714      3.443117     -3.579445
  O       3.162428      4.397479     -3.481132
  H       2.181300      4.370866     -3.524086
  H       3.466426      2.823411     -6.644241
  O       4.299237      2.520855     -6.241078
  H       4.055224      2.259594     -5.327161
  H       6.556221      1.432023     -4.210156
  O       6.230137      0.819456     -3.524990
  H       6.257739      1.296864     -2.674465
  H       4.161674      6.077956     -3.787524
  O       4.858557      6.746063     -3.675876
  H       5.549717      6.247751     -3.218046
  H       6.874904      3.429269     -4.581390
  O       6.960956      2.827718     -5.342853
  H       6.127312      2.958678     -5.829845
  H       5.268248      4.022837     -2.944398
  O       6.217614      4.185007     -2.890460
  H       6.491109      3.586426     -2.170207
  S       6.431595      6.347813     -6.807655
  H       5.784110      6.558389     -5.634724
  H       7.165186      5.339529     -6.292496
