39
Coordinates from ORCA-job neb_13_271_CI_MEP.QMRegion E -2273.673843888761
  H       1.710741      3.415135      6.871976
  O       1.148234      3.979852      6.316155
  H       0.319861      4.120125      6.832814
  H      -1.765361      4.510244      7.612156
  O      -0.848076      4.612337      7.965566
  H      -0.705989      5.576677      8.061658
  H       3.961046     -1.060427      7.113265
  O       4.035922     -0.094110      7.175560
  H       4.804838      0.149512      6.644908
  H       6.520363      1.085111      4.636246
  O       6.139815      1.614719      5.361092
  H       6.309317      2.533118      5.048253
  H      -0.098387      3.341956      9.029927
  O       0.124279      2.423408      9.288704
  H      -0.690140      2.142373      9.774678
  H       1.866181      2.042618      8.523943
  O       2.650351      2.208781      7.974894
  H       3.081596      1.337307      7.873396
  H       4.448991      1.971382      5.128590
  O       3.510680      2.242983      5.032448
  H       3.104998      2.121585      5.899438
  H       4.322891      4.931466      6.045020
  O       4.255529      5.652657      5.408172
  H       3.638040      5.273594      4.726741
  H       5.417394      3.652700      3.420705
  O       6.144083      3.960802      3.996418
  H       5.768311      4.757036      4.404291
  H       0.053202      5.857509     10.604355
  O      -0.753165      6.385951     10.694223
  H      -0.789790      6.872394      9.854780
  H       0.547177      7.338482      7.680632
  O      -0.379856      7.324544      7.974989
  H      -0.856276      7.278437      7.107482
  H       2.798661      6.640410      6.092894
  O       1.851211      6.696603      6.323379
  H       1.556996      5.765839      6.206774
  S       2.526985      5.397240      9.806366
  H       2.781797      4.158591      9.329252
  H       2.424740      5.919554      8.563248
39
Coordinates from ORCA-job neb_13_271_CI_MEP.QMRegion E -2273.670952411476
  H       1.699908      3.434322      6.860683
  O       1.133969      3.989055      6.300876
  H       0.307091      4.128701      6.819737
  H      -1.772561      4.501515      7.610559
  O      -0.855891      4.602961      7.966276
  H      -0.708192      5.569073      8.049769
  H       3.939826     -1.093332      7.107766
  O       4.009655     -0.126748      7.178117
  H       4.752916      0.127873      6.618098
  H       6.529986      1.141477      4.605254
  O       6.155216      1.682176      5.324909
  H       6.326276      2.598026      5.007035
  H      -0.112614      3.344944      9.003407
  O       0.126572      2.434941      9.282015
  H      -0.684541      2.147847      9.769036
  H       1.847780      2.040740      8.477648
  O       2.637204      2.161774      7.923572
  H       3.022579      1.268262      7.817968
  H       4.461666      2.008134      5.110823
  O       3.515851      2.252989      5.013529
  H       3.116922      2.168252      5.888225
  H       4.357486      4.983002      5.992026
  O       4.250280      5.712770      5.371315
  H       3.623937      5.323332      4.702370
  H       5.417102      3.706309      3.404080
  O       6.148044      4.034002      3.963001
  H       5.772277      4.839212      4.352634
  H       0.043397      5.881063     10.664313
  O      -0.764824      6.406821     10.683353
  H      -0.767553      6.851604      9.818118
  H       0.565281      7.277431      7.688991
  O      -0.365431      7.288274      7.979917
  H      -0.840352      7.264187      7.110305
  H       2.766942      6.689110      6.092369
  O       1.814940      6.718210      6.296813
  H       1.552855      5.776632      6.197481
  S       3.106675      5.052014      9.798336
  H       3.225823      3.834645      9.215416
  H       3.488266      5.691325      8.673481
39
Coordinates from ORCA-job neb_13_271_CI_MEP.QMRegion E -2273.669087908004
  H       1.716107      3.446580      6.844240
  O       1.143859      3.993899      6.285283
  H       0.317318      4.129939      6.805341
  H      -1.767724      4.500395      7.596624
  O      -0.849157      4.600829      7.947836
  H      -0.697652      5.567298      8.028015
  H       3.954211     -1.105780      7.101833
  O       4.037457     -0.140662      7.181875
  H       4.756954      0.114925      6.592209
  H       6.541906      1.161318      4.584905
  O       6.168972      1.709619      5.299688
  H       6.339792      2.623326      4.973610
  H      -0.120849      3.348987      8.982580
  O       0.130725      2.446052      9.275517
  H      -0.677130      2.155919      9.765514
  H       1.864577      2.020239      8.439488
  O       2.649203      2.129169      7.877284
  H       3.029167      1.232096      7.775241
  H       4.475017      2.020631      5.090199
  O       3.525430      2.254400      4.998709
  H       3.134437      2.180324      5.878109
  H       4.351738      4.996459      5.983341
  O       4.261783      5.722670      5.353265
  H       3.628967      5.337004      4.689320
  H       5.429679      3.723759      3.387325
  O       6.161910      4.058461      3.939802
  H       5.776148      4.854617      4.339929
  H       0.025066      5.916575     10.700598
  O      -0.789080      6.431999     10.669804
  H      -0.764869      6.849290      9.790993
  H       0.585152      7.255956      7.670718
  O      -0.343902      7.274690      7.971928
  H      -0.827134      7.262146      7.106663
  H       2.765444      6.710574      6.108510
  O       1.808378      6.723260      6.282583
  H       1.564294      5.777009      6.182486
  S       3.463297      4.924327      9.691586
  H       3.451666      3.709444      9.089314
  H       4.223508      5.469583      8.717974
39
Coordinates from ORCA-job neb_13_271_CI_MEP.QMRegion E -2273.668643530956
  H       1.729614      3.452233      6.839389
  O       1.149835      3.992631      6.282491
  H       0.324227      4.123071      6.804093
  H      -1.764629      4.494754      7.598220
  O      -0.846194      4.594012      7.949641
  H      -0.691509      5.561238      8.024608
  H       3.976414     -1.118229      7.107721
  O       4.076087     -0.156315      7.208330
  H       4.767920      0.106923      6.589017
  H       6.546642      1.161007      4.587366
  O       6.173534      1.709071      5.302188
  H       6.333224      2.624100      4.969440
  H      -0.127174      3.344194      8.974143
  O       0.134866      2.446677      9.276669
  H      -0.670073      2.154333      9.769219
  H       1.875306      1.986305      8.426594
  O       2.656822      2.092839      7.861289
  H       3.040571      1.196112      7.762594
  H       4.476405      2.018696      5.089792
  O       3.525512      2.246551      4.999924
  H       3.138476      2.175753      5.881712
  H       4.264733      5.053581      6.069483
  O       4.256480      5.722102      5.374640
  H       3.626034      5.331047      4.711867
  H       5.429084      3.729453      3.396981
  O       6.149947      4.062253      3.965157
  H       5.735014      4.823575      4.404941
  H       0.012113      5.931019     10.733291
  O      -0.800553      6.443109     10.671347
  H      -0.758570      6.844430      9.784323
  H       0.591986      7.240206      7.660732
  O      -0.334907      7.258991      7.973238
  H      -0.825024      7.255305      7.111838
  H       2.752922      6.736674      6.135080
  O       1.791565      6.732390      6.281404
  H       1.566677      5.781769      6.182280
  S       3.624978      4.962309      9.363761
  H       3.570673      3.670260      8.954961
  H       4.834966      5.166365      8.806476
39
Coordinates from ORCA-job neb_13_271_CI_MEP.QMRegion E -2273.670446582727
  H       1.749601      3.425263      6.808044
  O       1.174527      3.985001      6.265095
  H       0.345643      4.107868      6.782881
  H      -1.751268      4.487151      7.573597
  O      -0.829539      4.583263      7.916430
  H      -0.669798      5.549986      7.988672
  H       3.993318     -1.120997      7.086565
  O       4.102741     -0.159671      7.184624
  H       4.776244      0.100166      6.543713
  H       6.565203      1.165284      4.564583
  O       6.192196      1.717994      5.276193
  H       6.350772      2.631829      4.936078
  H      -0.117840      3.337099      8.956930
  O       0.140671      2.440943      9.266118
  H      -0.665698      2.152942      9.758559
  H       1.887294      1.952489      8.399060
  O       2.661237      2.067824      7.826656
  H       3.054049      1.175205      7.718502
  H       4.498771      2.023411      5.050307
  O       3.544729      2.242473      4.967028
  H       3.171194      2.188753      5.854998
  H       4.268511      5.146580      6.101203
  O       4.291485      5.738449      5.336727
  H       3.653664      5.317918      4.701812
  H       5.451614      3.730202      3.375539
  O       6.172989      4.064275      3.941862
  H       5.747081      4.810173      4.399870
  H       0.021874      5.909932     10.707328
  O      -0.785779      6.429318     10.640190
  H      -0.737592      6.825218      9.750808
  H       0.622383      7.225153      7.622334
  O      -0.300231      7.243022      7.949036
  H      -0.802768      7.246077      7.094017
  H       2.776258      6.739223      6.092801
  O       1.817185      6.720919      6.257157
  H       1.600014      5.769701      6.149118
  S       3.834022      4.985204      8.947956
  H       3.660597      3.649801      8.779828
  H       5.172523      4.904400      8.848470
39
Coordinates from ORCA-job neb_13_271_CI_MEP.QMRegion E -2273.673024304597
  H       1.726844      3.371800      6.804113
  O       1.177105      3.969234      6.273648
  H       0.343236      4.094199      6.782711
  H      -1.754163      4.481090      7.573150
  O      -0.831420      4.572912      7.914942
  H      -0.664378      5.538722      7.980063
  H       3.991092     -1.120990      7.087648
  O       4.105531     -0.160040      7.185924
  H       4.758675      0.099989      6.524019
  H       6.567668      1.176531      4.562445
  O       6.192646      1.729957      5.272226
  H       6.348676      2.645092      4.931321
  H      -0.118472      3.328988      8.963476
  O       0.138740      2.433798      9.275751
  H      -0.670517      2.147591      9.765173
  H       1.898687      1.942789      8.420748
  O       2.642003      2.050220      7.808021
  H       3.036697      1.158163      7.691140
  H       4.506727      2.033831      5.031269
  O       3.550144      2.243335      4.948486
  H       3.186139      2.216253      5.840369
  H       4.338246      5.257740      6.094162
  O       4.312806      5.794484      5.283857
  H       3.671460      5.322612      4.692682
  H       5.452455      3.738469      3.376502
  O       6.170839      4.071851      3.946571
  H       5.743339      4.822321      4.397982
  H       0.014833      5.880133     10.698318
  O      -0.781384      6.417189     10.633670
  H      -0.729495      6.808441      9.742500
  H       0.640245      7.210134      7.610157
  O      -0.280546      7.226513      7.941198
  H      -0.788869      7.236034      7.089311
  H       2.796316      6.731114      6.033767
  O       1.845614      6.702880      6.249871
  H       1.625377      5.753913      6.134244
  S       4.276970      4.854288      8.553529
  H       3.794967      3.585044      8.465857
  H       5.551470      4.435418      8.675504
39
Coordinates from ORCA-job neb_13_271_CI_MEP.QMRegion E -2273.675724376576
  H       1.671374      3.362774      6.851298
  O       1.138997      3.969544      6.309046
  H       0.305524      4.106868      6.811702
  H      -1.776295      4.515420      7.621123
  O      -0.861551      4.606672      7.983768
  H      -0.686182      5.571259      8.044805
  H       3.867320     -1.140753      7.109094
  O       3.919539     -0.170865      7.155573
  H       4.517816      0.082824      6.442964
  H       6.604500      1.274693      4.537901
  O       6.236942      1.877542      5.210135
  H       6.375103      2.776126      4.816049
  H      -0.151722      3.355117      8.986780
  O       0.127655      2.464272      9.295841
  H      -0.671954      2.161115      9.789733
  H       1.903536      2.102148      8.565589
  O       2.604269      2.126972      7.893717
  H       2.872443      1.196824      7.745015
  H       4.529284      2.106560      5.032456
  O       3.561167      2.256160      4.964375
  H       3.223306      2.306364      5.864263
  H       4.479163      5.206559      6.057088
  O       4.273827      5.830751      5.337465
  H       3.649817      5.341268      4.745320
  H       5.431410      3.861195      3.350336
  O       6.164375      4.205619      3.893573
  H       5.749767      4.958868      4.350638
  H      -0.010900      5.977921     10.796801
  O      -0.825835      6.480778     10.701636
  H      -0.764813      6.868537      9.810325
  H       0.602482      7.256434      7.652329
  O      -0.321684      7.266425      7.973805
  H      -0.818216      7.258823      7.115852
  H       2.782902      6.716381      6.099814
  O       1.826209      6.720117      6.299995
  H       1.587384      5.775356      6.192638
  S       5.410695      4.044773      7.995498
  H       4.348055      3.225401      8.207663
  H       6.069290      3.096171      7.296892
