24
Coordinates from ORCA-job neb_83_84_CI_MEP.QMRegion E -1917.022552297089
  H       4.256041      5.522264      0.290051
  O       4.629184      5.603534      1.186122
  H       3.926663      6.095458      1.657890
  H       4.061998      4.673115      6.272768
  O       4.190708      5.378977      5.626953
  H       3.599877      5.113077      4.878034
  H       5.535971      3.580418      3.518083
  O       6.190349      3.900280      4.163043
  H       5.687136      4.531891      4.702957
  H       3.739558      7.046784     -1.277828
  O       3.961842      7.979648     -1.496660
  H       4.293845      7.892039     -2.406260
  H       4.616383      3.923499      1.632958
  O       4.388868      3.021270      1.948372
  H       5.056280      2.405313      1.615613
  H       4.890087      8.473591      0.017894
  O       5.213033      8.531142      0.942410
  H       5.552502      7.637729      1.096350
  H       3.573996      8.230545      1.860013
  O       2.800576      7.642560      1.950994
  H       2.297937      7.893931      2.748980
  S       7.286185     11.302675      0.912092
  H       6.541742     10.181382      1.068206
  H       7.153936     11.259423     -0.429160
24
Coordinates from ORCA-job neb_83_84_CI_MEP.QMRegion E -1917.021630521539
  H       4.193932      5.602338      0.294353
  O       4.556396      5.699973      1.193986
  H       3.844560      6.192587      1.654035
  H       3.987109      4.715073      6.268981
  O       4.146078      5.413417      5.621462
  H       3.563581      5.150796      4.862689
  H       5.416461      3.603676      3.538137
  O       6.090294      3.915452      4.166334
  H       5.606089      4.551120      4.719246
  H       3.715623      7.072692     -1.337973
  O       3.906119      8.007511     -1.566981
  H       4.241403      7.923016     -2.477028
  H       4.566683      3.984329      1.623276
  O       4.354395      3.073004      1.922555
  H       5.051604      2.480058      1.612859
  H       4.812048      8.588011     -0.059826
  O       5.116057      8.621966      0.871555
  H       5.379282      7.702183      1.029868
  H       3.502898      8.341098      1.848964
  O       2.762721      7.715776      1.957447
  H       2.242938      7.957651      2.749066
  S       8.124675     10.134554      1.519632
  H       6.879717      9.675703      1.243804
  H       8.694473      9.167392      0.774424
24
Coordinates from ORCA-job neb_83_84_CI_MEP.QMRegion E -1917.020556707551
  H       4.235586      5.547871      0.298683
  O       4.602352      5.629495      1.197220
  H       3.908014      6.140941      1.660060
  H       3.986744      4.674886      6.285179
  O       4.149733      5.375633      5.641281
  H       3.566798      5.121856      4.880687
  H       5.449430      3.583846      3.538650
  O       6.114697      3.905287      4.171408
  H       5.615658      4.526528      4.727878
  H       3.731694      7.049443     -1.290141
  O       3.940466      7.982981     -1.516044
  H       4.274304      7.894931     -2.424768
  H       4.572837      3.940642      1.641386
  O       4.350165      3.032228      1.944831
  H       5.035176      2.428422      1.627333
  H       4.847028      8.547653     -0.016305
  O       5.172131      8.675413      0.903082
  H       5.514019      7.804328      1.122537
  H       3.537948      8.308479      1.848392
  O       2.795465      7.683520      1.948549
  H       2.278522      7.923264      2.741801
  S       8.662407      9.379165      1.571755
  H       7.494347      9.244838      0.909884
  H       9.023316      8.101355      1.335494
24
Coordinates from ORCA-job neb_83_84_CI_MEP.QMRegion E -1917.019989592129
  H       4.273338      5.513922      0.262559
  O       4.672367      5.576638      1.147245
  H       4.037555      6.146049      1.623167
  H       4.063242      4.712336      6.221958
  O       4.187718      5.425511      5.583479
  H       3.596701      5.157083      4.832680
  H       5.532836      3.587868      3.494173
  O       6.180291      3.897770      4.152062
  H       5.680170      4.549360      4.670126
  H       3.763963      7.048249     -1.262244
  O       3.977551      7.978324     -1.495258
  H       4.302251      7.882937     -2.406465
  H       4.596751      3.949968      1.614630
  O       4.388364      3.039644      1.937566
  H       5.064774      2.435671      1.603866
  H       4.836357      8.623353      0.011113
  O       5.033378      8.954309      0.911737
  H       5.817318      8.463237      1.186460
  H       3.582144      8.292096      1.796260
  O       2.838234      7.664703      1.919628
  H       2.337711      7.912064      2.717591
  S       8.437217      9.125679      1.557722
  H       8.301876      9.362974      0.237749
  H       9.303360      8.112249      1.349099
24
Coordinates from ORCA-job neb_83_84_CI_MEP.QMRegion E -1917.020288511333
  H       4.230417      5.454659      0.324864
  O       4.588693      5.496895      1.228443
  H       3.944598      6.074929      1.682988
  H       3.914359      4.594564      6.335067
  O       4.115084      5.292723      5.699556
  H       3.538157      5.068314      4.924789
  H       5.420989      3.555187      3.562138
  O       6.079953      3.895029      4.192627
  H       5.556068      4.472686      4.774857
  H       3.751980      7.020371     -1.220697
  O       3.970360      7.953950     -1.448163
  H       4.283628      7.866799     -2.360568
  H       4.497791      3.881824      1.693730
  O       4.289855      2.962042      1.991802
  H       4.986597      2.374723      1.671908
  H       4.714340      8.654913      0.107483
  O       4.828816      9.019551      1.008720
  H       5.680121      8.677313      1.312767
  H       3.507654      8.216833      1.824783
  O       2.770129      7.575923      1.938800
  H       2.264315      7.825655      2.732992
  S       8.174203      8.841331      1.642241
  H       8.212798      8.699294      0.301585
  H       8.609388      7.581404      1.845187
24
Coordinates from ORCA-job neb_83_84_CI_MEP.QMRegion E -1917.021531782311
  H       4.244866      5.413366      0.331508
  O       4.601056      5.450723      1.235458
  H       3.954911      6.027489      1.690806
  H       3.865491      4.521784      6.390352
  O       4.092123      5.214698      5.757463
  H       3.519964      5.010693      4.975545
  H       5.410747      3.546385      3.579996
  O       6.063777      3.900593      4.209421
  H       5.521440      4.433074      4.818532
  H       3.765101      7.012065     -1.199189
  O       3.989806      7.944435     -1.422232
  H       4.300911      7.858901     -2.337252
  H       4.491585      3.842529      1.714015
  O       4.275397      2.926284      2.015497
  H       4.966799      2.333010      1.694619
  H       4.696104      8.676407      0.150260
  O       4.784373      9.034813      1.055221
  H       5.654353      8.734920      1.359265
  H       3.505701      8.168546      1.830589
  O       2.768998      7.522128      1.938592
  H       2.265412      7.770801      2.732319
  S       8.040580      8.266896      1.706387
  H       7.959615      7.664477      0.502524
  H       7.921554      7.091719      2.358543
24
Coordinates from ORCA-job neb_83_84_CI_MEP.QMRegion E -1917.027402945444
  H       4.196528      5.452543      0.277531
  O       4.576402      5.496694      1.174015
  H       3.974130      6.116494      1.636119
  H       3.965889      4.665577      6.324285
  O       4.153908      5.345759      5.665328
  H       3.566275      5.099459      4.904683
  H       5.518281      3.624707      3.561075
  O       6.147164      3.962870      4.223618
  H       5.588231      4.514239      4.801550
  H       3.788778      7.046222     -1.214506
  O       4.018782      7.975312     -1.429903
  H       4.328155      7.889519     -2.346944
  H       4.527360      3.882629      1.684347
  O       4.342516      2.976240      2.021955
  H       5.019276      2.378238      1.678258
  H       4.918190      8.629689      0.164465
  O       5.049566      8.937878      1.081585
  H       5.815434      8.440744      1.407347
  H       3.596125      8.250300      1.826938
  O       2.841982      7.625909      1.929696
  H       2.337188      7.868022      2.726780
  S       7.609335      6.701217      1.953357
  H       6.619558      6.076571      1.274724
  H       7.245622      6.059668      3.087282
