36
Coordinates from ORCA-job neb_121_372_CI_MEP.QMRegion E -2202.353968285164
  H      -0.158841     -3.483847      3.775155
  O      -0.473885     -2.675395      4.209511
  H       0.187565     -2.477460      4.892892
  H      -2.446769     -3.618987      1.895941
  O      -2.484664     -4.510551      2.312423
  H      -1.556097     -4.824805      2.332515
  H       0.743140     -5.033918      1.921903
  O       0.189675     -5.111736      2.727681
  H       0.350354     -6.039124      2.991092
  H       2.060743     -3.563437      4.226556
  O       2.023719     -4.001701      5.104204
  H       2.600714     -3.439947      5.664043
  H       4.549311     -2.274422      5.607850
  O       4.230268     -2.768751      6.400711
  H       4.605780     -3.658309      6.259468
  H       2.490384     -5.512945      4.856986
  O       2.888690     -6.411985      4.664788
  H       2.155052     -7.030510      4.580235
  H       2.042102     -0.737576      5.266119
  O       1.513726     -1.291191      5.873231
  H       1.522198     -0.864611      6.750114
  H       5.814578     -5.282106      4.720193
  O       5.367923     -5.259954      5.599018
  H       4.610760     -5.854609      5.495805
  H      -2.170071     -2.980313      4.641420
  O      -2.990603     -3.510753      4.734281
  H      -2.953931     -4.055358      3.914248
  H      -0.144415     -8.062690      2.444978
  O       0.682020     -7.855856      2.901144
  H       1.391700     -8.110024      2.278556
  H      -3.647371     -3.552207      7.921423
  O      -3.693526     -2.838648      7.284214
  H      -3.491419     -3.234827      6.411456
  S      -0.932947     -5.759271      6.538441
  H      -1.795311     -5.051059      5.765845
  H       0.073364     -4.904486      6.254924
36
Coordinates from ORCA-job neb_121_372_CI_MEP.QMRegion E -2202.350194677251
  H      -0.223127     -3.471985      3.745491
  O      -0.511818     -2.659209      4.187468
  H       0.152858     -2.495218      4.875854
  H      -2.511141     -3.592227      1.921652
  O      -2.536441     -4.488302      2.330418
  H      -1.608558     -4.798949      2.312006
  H       0.699262     -5.003462      1.893894
  O       0.135805     -5.112164      2.688530
  H       0.290630     -6.054223      2.902308
  H       2.010069     -3.561457      4.180618
  O       1.975993     -3.997643      5.061017
  H       2.588055     -3.449520      5.599891
  H       4.514561     -2.280719      5.573408
  O       4.191618     -2.811757      6.340159
  H       4.567685     -3.694756      6.148859
  H       2.417854     -5.498770      4.796880
  O       2.826531     -6.399325      4.619689
  H       2.106322     -7.032357      4.541378
  H       2.033396     -0.734780      5.237792
  O       1.513142     -1.284591      5.856247
  H       1.533877     -0.852027      6.729012
  H       5.771592     -5.263091      4.649585
  O       5.288128     -5.247878      5.509530
  H       4.538500     -5.847828      5.377706
  H      -2.200978     -2.962106      4.671592
  O      -3.024083     -3.478972      4.797783
  H      -2.997573     -4.073193      4.020942
  H      -0.257348     -8.007366      2.315746
  O       0.561267     -7.845408      2.808606
  H       1.287962     -8.092881      2.204900
  H      -3.704598     -3.517857      7.967940
  O      -3.706070     -2.817050      7.315950
  H      -3.492761     -3.230155      6.449552
  S       0.047597     -5.996024      7.411496
  H      -0.614958     -6.031205      6.236293
  H       0.814926     -4.974642      6.978829
36
Coordinates from ORCA-job neb_121_372_CI_MEP.QMRegion E -2202.349445175791
  H      -0.220246     -3.481433      3.756723
  O      -0.505796     -2.664364      4.192034
  H       0.156989     -2.501784      4.882646
  H      -2.506433     -3.598623      1.932406
  O      -2.532540     -4.494809      2.339794
  H      -1.605782     -4.807527      2.318176
  H       0.705330     -5.014648      1.893767
  O       0.141637     -5.124739      2.688169
  H       0.293503     -6.066239      2.901216
  H       2.017242     -3.580502      4.175414
  O       1.984567     -4.023528      5.052138
  H       2.599215     -3.480145      5.592401
  H       4.517944     -2.295416      5.573158
  O       4.196423     -2.829900      6.337942
  H       4.574720     -3.711986      6.146828
  H       2.414373     -5.526336      4.783628
  O       2.817263     -6.431065      4.608465
  H       2.096046     -7.050039      4.457784
  H       2.035994     -0.744916      5.240709
  O       1.515336     -1.294948      5.858511
  H       1.535285     -0.861857      6.730985
  H       5.777991     -5.279871      4.655025
  O       5.298628     -5.268145      5.517583
  H       4.556820     -5.877481      5.392360
  H      -2.196339     -2.962096      4.678575
  O      -3.023418     -3.471399      4.810006
  H      -2.995436     -4.082591      4.047914
  H      -0.246826     -8.026066      2.328856
  O       0.575481     -7.868674      2.816920
  H       1.297760     -8.112875      2.205776
  H      -3.701346     -3.518907      7.980080
  O      -3.701807     -2.819304      7.326771
  H      -3.484693     -3.233197      6.460953
  S       0.430771     -6.043814      7.756529
  H       0.108914     -6.434921      6.505707
  H       1.090716     -4.966657      7.285409
36
Coordinates from ORCA-job neb_121_372_CI_MEP.QMRegion E -2202.349390081072
  H      -0.184427     -3.499071      3.780136
  O      -0.476432     -2.680630      4.208202
  H       0.188651     -2.503278      4.893586
  H      -2.487076     -3.612993      1.946160
  O      -2.516239     -4.509733      2.350557
  H      -1.590255     -4.824668      2.332475
  H       0.721334     -5.032483      1.900156
  O       0.164238     -5.143941      2.699215
  H       0.315294     -6.085093      2.911237
  H       2.057146     -3.602611      4.178952
  O       2.041916     -4.052909      5.051414
  H       2.648321     -3.503466      5.593303
  H       4.544017     -2.301597      5.583030
  O       4.226951     -2.824750      6.358017
  H       4.601914     -3.710373      6.183059
  H       2.449951     -5.572755      4.784662
  O       2.825143     -6.486729      4.603521
  H       2.086412     -7.066374      4.388962
  H       2.040573     -0.756906      5.245754
  O       1.516323     -1.306993      5.860320
  H       1.536220     -0.876842      6.734249
  H       5.798455     -5.291888      4.671592
  O       5.345726     -5.278161      5.548971
  H       4.635688     -5.928183      5.469286
  H      -2.173869     -2.970488      4.691964
  O      -3.010004     -3.465840      4.819894
  H      -2.979136     -4.090983      4.070080
  H      -0.218634     -8.058511      2.349967
  O       0.607414     -7.899788      2.829902
  H       1.324714     -8.141314      2.210756
  H      -3.678774     -3.522699      7.993271
  O      -3.693868     -2.826789      7.336138
  H      -3.466987     -3.239898      6.471937
  S       0.920999     -6.160616      8.004717
  H       0.828318     -6.725204      6.783198
  H       1.375955     -5.007693      7.474008
36
Coordinates from ORCA-job neb_121_372_CI_MEP.QMRegion E -2202.349529682852
  H      -0.166724     -3.504130      3.790588
  O      -0.461038     -2.685185      4.215962
  H       0.206110     -2.501582      4.897984
  H      -2.479443     -3.615425      1.953080
  O      -2.509019     -4.512525      2.356183
  H      -1.582463     -4.826229      2.338360
  H       0.728851     -5.035772      1.901483
  O       0.171138     -5.146888      2.700234
  H       0.314494     -6.089565      2.907890
  H       2.081409     -3.608364      4.182516
  O       2.073134     -4.061337      5.052819
  H       2.660463     -3.499416      5.599938
  H       4.553901     -2.279163      5.597099
  O       4.234147     -2.778469      6.387012
  H       4.599667     -3.669326      6.235505
  H       2.464228     -5.603698      4.780148
  O       2.779585     -6.534847      4.585559
  H       2.006144     -7.034801      4.298485
  H       2.047809     -0.761040      5.247822
  O       1.519730     -1.309162      5.860758
  H       1.545447     -0.882671      6.736065
  H       5.800398     -5.258987      4.661002
  O       5.370787     -5.211611      5.549380
  H       4.803360     -5.986561      5.605115
  H      -2.159617     -2.970845      4.699385
  O      -2.999032     -3.461238      4.826307
  H      -2.966923     -4.091330      4.080818
  H      -0.212233     -8.065041      2.347480
  O       0.616919     -7.908984      2.822361
  H       1.331862     -8.152597      2.200982
  H      -3.675246     -3.523935      7.997906
  O      -3.687653     -2.828113      7.340657
  H      -3.455851     -3.240228      6.476865
  S       1.428259     -6.261492      8.094820
  H       1.717507     -6.829725      6.905404
  H       1.542184     -5.024730      7.569361
36
Coordinates from ORCA-job neb_121_372_CI_MEP.QMRegion E -2202.349430869619
  H      -0.203204     -3.511007      3.774589
  O      -0.490406     -2.689885      4.200243
  H       0.175382     -2.519640      4.886878
  H      -2.499021     -3.608735      1.945412
  O      -2.530133     -4.505214      2.350046
  H      -1.604991     -4.824387      2.325410
  H       0.702742     -5.047380      1.891624
  O       0.128002     -5.164610      2.677038
  H       0.260742     -6.110267      2.876496
  H       2.050073     -3.622611      4.177253
  O       2.019300     -4.077425      5.045300
  H       2.589626     -3.513635      5.604271
  H       4.512598     -2.255131      5.603491
  O       4.166425     -2.718195      6.404074
  H       4.555544     -3.602864      6.319120
  H       2.412822     -5.647702      4.751474
  O       2.676168     -6.582982      4.525686
  H       1.878380     -7.012456      4.193374
  H       2.036237     -0.771761      5.241192
  O       1.502123     -1.316969      5.851393
  H       1.541047     -0.898660      6.729677
  H       5.798701     -5.194125      4.642296
  O       5.360487     -5.086976      5.524122
  H       5.359837     -5.958693      5.930708
  H      -2.181173     -2.986767      4.692019
  O      -3.018989     -3.479409      4.823563
  H      -2.995174     -4.100626      4.069919
  H      -0.255840     -8.077029      2.305812
  O       0.571205     -7.934269      2.789607
  H       1.293240     -8.169891      2.174157
  H      -3.742034     -3.537388      7.983334
  O      -3.706233     -2.834031      7.335098
  H      -3.487078     -3.248233      6.468915
  S       2.000724     -6.473144      8.054027
  H       2.197175     -6.847879      6.768835
  H       1.748176     -5.201166      7.679660
36
Coordinates from ORCA-job neb_121_372_CI_MEP.QMRegion E -2202.350717908543
  H      -0.192566     -3.497735      3.761578
  O      -0.486344     -2.682174      4.193379
  H       0.176652     -2.512603      4.883095
  H      -2.495519     -3.602322      1.920338
  O      -2.524777     -4.499152      2.325657
  H      -1.597852     -4.814199      2.308787
  H       0.708179     -5.042085      1.889014
  O       0.129218     -5.156528      2.672047
  H       0.259901     -6.101644      2.874346
  H       2.044861     -3.615440      4.185257
  O       2.004382     -4.079386      5.047893
  H       2.580481     -3.529676      5.615538
  H       4.498854     -2.270157      5.610547
  O       4.143032     -2.723885      6.411616
  H       4.552052     -3.601945      6.356072
  H       2.372465     -5.638480      4.730570
  O       2.645641     -6.576425      4.519848
  H       1.853080     -7.020716      4.194541
  H       2.036142     -0.770192      5.246975
  O       1.498973     -1.316487      5.853147
  H       1.535573     -0.901391      6.733113
  H       5.812450     -5.241165      4.697125
  O       5.382056     -5.091236      5.574013
  H       5.400541     -5.923198      6.054631
  H      -2.176620     -2.971615      4.662292
  O      -3.013287     -3.468789      4.784368
  H      -2.986990     -4.076924      4.018476
  H      -0.265171     -8.066465      2.300155
  O       0.561053     -7.927349      2.786922
  H       1.284401     -8.163939      2.173620
  H      -3.793262     -3.547433      7.917873
  O      -3.715485     -2.827449      7.292296
  H      -3.499593     -3.226272      6.417676
  S       2.846172     -6.677852      7.952810
  H       2.658049     -6.914266      6.629898
  H       2.257157     -5.467029      7.856680
