21
Coordinates from ORCA-job neb_24_186_CI_MEP.QMRegion E -1845.692265582822
  H       3.368330      3.496148     -3.534344
  O       3.168908      4.455545     -3.448047
  H       2.188913      4.443218     -3.498242
  H       3.339286      2.833739     -6.660440
  O       4.214750      2.688170     -6.254082
  H       4.013877      2.382032     -5.344332
  H       3.717530      7.098796     -1.136094
  O       3.904426      8.051953     -1.306609
  H       4.263924      8.026530     -2.203154
  H       4.228024      6.120913     -3.789124
  O       4.910399      6.808117     -3.708707
  H       5.655920      6.322678     -3.329013
  H       6.924180      3.364345     -4.517937
  O       6.959466      2.710983     -5.237941
  H       6.189634      2.920085     -5.785974
  H       5.324399      4.079190     -2.970222
  O       6.276087      4.202201     -2.883381
  H       6.503571      3.585217     -2.159365
  S       5.526748      6.136813     -7.066464
  H       4.735773      5.097851     -6.726186
  H       5.401278      6.690317     -5.837181
21
Coordinates from ORCA-job neb_24_186_CI_MEP.QMRegion E -1845.689177922323
  H       3.368010      3.458169     -3.531691
  O       3.167729      4.417599     -3.438491
  H       2.187997      4.401930     -3.496039
  H       3.348460      2.802495     -6.663309
  O       4.218717      2.651429     -6.248543
  H       4.008249      2.332306     -5.345329
  H       3.717736      7.066237     -1.128743
  O       3.907290      8.019532     -1.303695
  H       4.275872      7.973201     -2.196108
  H       4.239012      6.051656     -3.766646
  O       4.914728      6.741004     -3.657524
  H       5.670673      6.245219     -3.314922
  H       6.909039      3.308451     -4.528062
  O       6.954547      2.668854     -5.261091
  H       6.157209      2.842685     -5.782949
  H       5.320838      4.012832     -2.971279
  O       6.275618      4.127665     -2.910158
  H       6.509724      3.527669     -2.172886
  S       5.509787      6.861644     -7.052447
  H       4.855729      5.792951     -6.553582
  H       5.336392      7.534649     -5.896529
21
Coordinates from ORCA-job neb_24_186_CI_MEP.QMRegion E -1845.688630328204
  H       3.367564      3.477420     -3.527382
  O       3.167343      4.436037     -3.434787
  H       2.187709      4.423413     -3.491121
  H       3.354958      2.829771     -6.659471
  O       4.222507      2.668063     -6.243758
  H       4.006655      2.351963     -5.341001
  H       3.718193      7.087462     -1.122896
  O       3.908591      8.039104     -1.301131
  H       4.283623      7.989536     -2.190919
  H       4.241835      6.064391     -3.752819
  O       4.918049      6.753341     -3.646825
  H       5.676526      6.258328     -3.309414
  H       6.902301      3.325326     -4.526856
  O       6.950012      2.688768     -5.262550
  H       6.146121      2.856317     -5.777125
  H       5.321529      4.029860     -2.967655
  O       6.277002      4.141116     -2.911466
  H       6.512727      3.543661     -2.173164
  S       5.487029      7.233541     -7.013796
  H       4.928938      6.144596     -6.449680
  H       5.296063      7.935664     -5.879885
21
Coordinates from ORCA-job neb_24_186_CI_MEP.QMRegion E -1845.688602929034
  H       3.364353      3.484735     -3.528404
  O       3.165138      4.444853     -3.434825
  H       2.186892      4.434679     -3.485999
  H       3.368508      2.853340     -6.650450
  O       4.229826      2.668473     -6.233104
  H       4.004892      2.353836     -5.331747
  H       3.722457      7.091939     -1.123703
  O       3.916047      8.043472     -1.301505
  H       4.301278      7.996649     -2.185857
  H       4.235834      6.097703     -3.744391
  O       4.920916      6.782240     -3.664349
  H       5.678560      6.289160     -3.320139
  H       6.869529      3.334012     -4.510730
  O       6.923584      2.702127     -5.249934
  H       6.110160      2.857162     -5.755474
  H       5.316436      4.069497     -2.934369
  O       6.275123      4.162252     -2.896372
  H       6.514919      3.552306     -2.169513
  S       5.369127      7.666178     -7.001130
  H       5.088635      6.522343     -6.347377
  H       5.315360      8.355232     -5.844855
21
Coordinates from ORCA-job neb_24_186_CI_MEP.QMRegion E -1845.688518940699
  H       3.363292      3.488346     -3.526521
  O       3.164906      4.446855     -3.432842
  H       2.185086      4.438623     -3.485494
  H       3.369958      2.857904     -6.651800
  O       4.230349      2.669961     -6.234255
  H       4.004210      2.357314     -5.332805
  H       3.722489      7.095444     -1.128821
  O       3.916538      8.045938     -1.307322
  H       4.298451      7.999577     -2.194307
  H       4.235343      6.075495     -3.744850
  O       4.918846      6.762922     -3.679478
  H       5.676893      6.279401     -3.324884
  H       6.878215      3.337660     -4.515987
  O       6.927009      2.703774     -5.253866
  H       6.114582      2.863814     -5.759145
  H       5.319483      4.060993     -2.947308
  O       6.276486      4.163292     -2.899355
  H       6.514993      3.555579     -2.170573
  S       5.366459      7.975936     -6.891313
  H       5.144980      6.872282     -6.149189
  H       5.225968      8.750437     -5.797196
21
Coordinates from ORCA-job neb_24_186_CI_MEP.QMRegion E -1845.688857964945
  H       3.360821      3.495454     -3.525424
  O       3.167326      4.455169     -3.435216
  H       2.187794      4.451698     -3.487635
  H       3.365993      2.868494     -6.655328
  O       4.227271      2.680234     -6.239438
  H       4.002366      2.373420     -5.336286
  H       3.721403      7.100147     -1.127584
  O       3.912209      8.051973     -1.303019
  H       4.290868      8.013540     -2.190998
  H       4.251733      6.077296     -3.779258
  O       4.933388      6.763243     -3.686937
  H       5.685369      6.270978     -3.330014
  H       6.888061      3.348375     -4.530456
  O       6.931163      2.710422     -5.264657
  H       6.123013      2.878549     -5.774053
  H       5.321593      4.053391     -2.969090
  O       6.276347      4.169195     -2.908602
  H       6.514094      3.566903     -2.175524
  S       5.372123      8.326337     -6.734166
  H       5.163237      7.260522     -5.932020
  H       5.121814      9.164555     -5.707969
21
Coordinates from ORCA-job neb_24_186_CI_MEP.QMRegion E -1845.689571723445
  H       3.364598      3.486865     -3.530351
  O       3.170948      4.446548     -3.436009
  H       2.191635      4.441367     -3.493324
  H       3.369419      2.859734     -6.661200
  O       4.228082      2.669141     -6.241260
  H       3.999697      2.356406     -5.340872
  H       3.726014      7.082128     -1.139567
  O       3.923265      8.033110     -1.317212
  H       4.296962      7.990055     -2.206827
  H       4.258715      6.065972     -3.847070
  O       4.938281      6.751609     -3.733265
  H       5.690099      6.254601     -3.382589
  H       6.880799      3.331999     -4.544706
  O       6.923708      2.693382     -5.278261
  H       6.110041      2.852302     -5.782339
  H       5.321114      4.037878     -2.989678
  O       6.275831      4.152054     -2.925474
  H       6.511369      3.549893     -2.191362
  S       5.308626      8.771065     -6.514406
  H       5.246531      7.809289     -5.562228
  H       5.030864      9.737397     -5.614761
