24
Coordinates from ORCA-job neb_85_139_CI_MEP.QMRegion E -1917.021675345001
  H       2.254772      5.783014     -1.154560
  O       3.187437      5.470439     -1.012503
  H       3.324254      4.820438     -1.723664
  H       3.445197      3.392696     -3.625609
  O       3.229404      4.347407     -3.503569
  H       2.250587      4.312733     -3.565398
  H       3.773114      7.105110     -1.359034
  O       3.892096      8.053150     -1.588111
  H       3.766044      8.024269     -2.554654
  H       3.582643      6.260184     -4.204487
  O       3.773114      7.204972     -4.307165
  H       4.737559      7.229173     -4.428015
  H       6.808165      3.241862     -4.560019
  O       6.886516      2.599475     -5.289459
  H       6.046733      2.693219     -5.772714
  H       4.919052      8.488452      0.096766
  O       5.216575      8.402960      1.016653
  H       5.415796      7.454969      1.103936
  H       5.371371      4.257514     -2.976353
  O       6.324673      4.116580     -2.942533
  H       6.448516      3.453674     -2.232667
  S       7.055020      7.430274     -3.609238
  H       6.398648      7.862516     -2.510362
  H       7.008980      6.144169     -3.192270
24
Coordinates from ORCA-job neb_85_139_CI_MEP.QMRegion E -1917.013947603720
  H       2.234034      5.751440     -1.115566
  O       3.146553      5.405080     -0.932627
  H       3.271951      4.701654     -1.593627
  H       3.437342      3.329807     -3.525909
  O       3.203550      4.271120     -3.343589
  H       2.229402      4.249706     -3.465842
  H       3.799117      7.050080     -1.136150
  O       3.943596      7.987602     -1.382602
  H       3.937560      7.903088     -2.351480
  H       3.678512      5.968703     -3.865537
  O       3.860996      6.917438     -3.985243
  H       4.643722      6.955168     -4.552069
  H       6.715047      3.238786     -4.459377
  O       6.854627      2.631567     -5.215633
  H       6.023841      2.699008     -5.717235
  H       5.006578      8.417468      0.248819
  O       5.264899      8.354863      1.183842
  H       5.449139      7.405226      1.292413
  H       5.327764      4.294290     -2.853585
  O       6.272763      4.111184     -2.892457
  H       6.412765      3.438097     -2.196574
  S       6.747088      8.139685     -5.202603
  H       6.345492      8.827609     -4.112717
  H       7.296825      7.166376     -4.448684
24
Coordinates from ORCA-job neb_85_139_CI_MEP.QMRegion E -1917.010405561820
  H       2.228040      5.757273     -1.116035
  O       3.146225      5.419146     -0.943784
  H       3.269946      4.721774     -1.610624
  H       3.426859      3.343773     -3.546438
  O       3.189738      4.286081     -3.373217
  H       2.214040      4.256721     -3.484457
  H       3.789909      7.060610     -1.163724
  O       3.939540      8.006390     -1.376723
  H       3.993932      7.955231     -2.343303
  H       3.737247      5.971599     -3.862812
  O       4.064776      6.882377     -3.972694
  H       4.891721      6.780627     -4.452964
  H       6.712608      3.237911     -4.468944
  O       6.850481      2.629134     -5.223745
  H       6.018212      2.695308     -5.723358
  H       4.986989      8.432733      0.247349
  O       5.249419      8.372069      1.181812
  H       5.444394      7.424777      1.288319
  H       5.311401      4.278715     -2.855753
  O       6.258173      4.107601     -2.899453
  H       6.409395      3.439145     -2.201646
  S       6.789290      8.514276     -5.580666
  H       6.162802      9.008647     -4.492712
  H       7.222021      7.427206     -4.909533
24
Coordinates from ORCA-job neb_85_139_CI_MEP.QMRegion E -1917.009863893485
  H       2.253060      5.783675     -1.143734
  O       3.179354      5.462010     -0.987322
  H       3.310081      4.783167     -1.670633
  H       3.446953      3.379467     -3.605482
  O       3.217272      4.328139     -3.461128
  H       2.239523      4.292898     -3.540648
  H       3.821160      7.103530     -1.251059
  O       3.958270      8.057285     -1.437880
  H       4.036448      8.042801     -2.402595
  H       3.814376      6.068043     -3.995009
  O       4.269641      6.923746     -4.083070
  H       5.191794      6.666342     -4.171994
  H       6.776723      3.251697     -4.526077
  O       6.880484      2.622399     -5.266880
  H       6.044870      2.705969     -5.758425
  H       5.004232      8.476861      0.202025
  O       5.252100      8.404706      1.139222
  H       5.467098      7.461836      1.235742
  H       5.361394      4.274301     -2.918268
  O       6.314584      4.137975     -2.940388
  H       6.468364      3.473806     -2.239297
  S       7.063290      8.827851     -5.674640
  H       6.096888      9.085959     -4.769997
  H       7.161695      7.540605     -5.283787
24
Coordinates from ORCA-job neb_85_139_CI_MEP.QMRegion E -1917.010978461000
  H       2.234859      5.773536     -1.141948
  O       3.163358      5.453419     -0.988963
  H       3.290985      4.775878     -1.673812
  H       3.408091      3.370340     -3.617080
  O       3.193179      4.322798     -3.472042
  H       2.214133      4.297439     -3.542077
  H       3.779102      7.088173     -1.266936
  O       3.928440      8.042695     -1.445522
  H       4.000199      8.041327     -2.410339
  H       3.873446      6.054402     -4.027665
  O       4.420912      6.858784     -4.041860
  H       5.278317      6.529136     -3.751293
  H       6.746282      3.254850     -4.526184
  O       6.859696      2.623262     -5.262402
  H       6.025797      2.700357     -5.758639
  H       4.968946      8.467672      0.194591
  O       5.231685      8.400392      1.128019
  H       5.442704      7.456479      1.227019
  H       5.258623      4.169940     -2.934578
  O       6.221288      4.132332     -2.929544
  H       6.419104      3.479662     -2.228726
  S       6.941694      8.829230     -5.707992
  H       5.961338      9.192568     -4.856986
  H       6.622848      7.527867     -5.571339
24
Coordinates from ORCA-job neb_85_139_CI_MEP.QMRegion E -1917.013140646194
  H       2.233803      5.770971     -1.154267
  O       3.164942      5.456384     -1.005015
  H       3.295794      4.784084     -1.693470
  H       3.392256      3.371983     -3.647713
  O       3.193069      4.329374     -3.512968
  H       2.213685      4.317014     -3.571589
  H       3.773323      7.083754     -1.302730
  O       3.931664      8.041324     -1.459356
  H       4.065743      8.058195     -2.415928
  H       4.027490      6.010740     -4.036173
  O       4.627899      6.774315     -3.993642
  H       5.418575      6.396564     -3.588947
  H       6.752155      3.261505     -4.539983
  O       6.860464      2.622008     -5.268591
  H       6.028124      2.702602     -5.766987
  H       4.952689      8.460171      0.172471
  O       5.223724      8.405550      1.105068
  H       5.443568      7.464804      1.211462
  H       5.214057      4.096402     -2.954855
  O       6.176862      4.126598     -2.925323
  H       6.400398      3.484350     -2.223154
  S       6.529845      8.779543     -6.039652
  H       5.822610      9.420036     -5.086747
  H       5.918904      7.615748     -5.735404
24
Coordinates from ORCA-job neb_85_139_CI_MEP.QMRegion E -1917.014900230373
  H       2.247459      5.774477     -1.158109
  O       3.177700      5.461000     -1.006118
  H       3.315935      4.791106     -1.695773
  H       3.423993      3.373398     -3.639366
  O       3.238174      4.334843     -3.512716
  H       2.260806      4.338518     -3.581534
  H       3.825038      7.080378     -1.277202
  O       4.001901      8.039245     -1.402472
  H       4.258439      8.068980     -2.332092
  H       4.226418      6.003617     -3.967659
  O       4.862109      6.736899     -3.917543
  H       5.669076      6.305260     -3.609358
  H       6.797319      3.255185     -4.546692
  O       6.883586      2.611665     -5.274089
  H       6.048602      2.705211     -5.765555
  H       4.994291      8.438347      0.223652
  O       5.254092      8.399778      1.161490
  H       5.478321      7.462213      1.281172
  H       5.293790      4.101079     -2.930376
  O       6.257400      4.120802     -2.918443
  H       6.480763      3.477989     -2.215861
  S       5.308840      8.669747     -6.758136
  H       5.204406      9.667852     -5.856049
  H       5.150343      7.727992     -5.797655
