30
Coordinates from ORCA-job neb_41_477_CI_MEP.QMRegion E -2059.691904517962
  H      -7.571636      3.809667     -1.956647
  O      -7.880685      3.237254     -1.218313
  H      -7.718826      2.321666     -1.561974
  H      -9.025023     -1.840913     -2.161630
  O      -8.464604     -1.619858     -1.396065
  H      -8.505234     -2.359052     -0.738548
  H      -7.775946     -3.755114      1.043015
  O      -8.486271     -3.648852      0.382254
  H      -8.357045     -4.385299     -0.245118
  H      -7.292666      1.611119     -5.218420
  O      -7.893561      0.874088     -4.997514
  H      -8.789124      1.293948     -4.965299
  H      -6.831376     -5.211530     -1.412192
  O      -7.760342     -5.473322     -1.633713
  H      -7.884618     -5.091757     -2.530069
  H      -7.817362      0.019897     -1.889156
  O      -7.388388      0.799157     -2.285621
  H      -7.558797      0.777000     -3.250690
  H     -10.110742      3.031715     -5.055887
  O     -10.217372      2.132676     -4.716077
  H     -10.290302      2.313123     -3.750412
  H      -8.884246     -2.915196     -4.098588
  O      -9.423490     -2.103059     -3.992640
  H      -9.029164     -1.477343     -4.612212
  H     -10.403123      4.057964     -2.818018
  O     -10.458191      3.290825     -2.225987
  H      -9.591299      3.292285     -1.758783
  S     -11.908928     -0.010237     -1.898001
  H     -11.472868     -0.334376     -3.131462
  H     -11.577953      1.290603     -2.043817
30
Coordinates from ORCA-job neb_41_477_CI_MEP.QMRegion E -2059.689923004967
  H      -7.583688      3.852811     -1.943110
  O      -7.888095      3.281327     -1.202061
  H      -7.729236      2.368557     -1.551123
  H      -9.029446     -1.813489     -2.163256
  O      -8.465476     -1.572190     -1.406137
  H      -8.502609     -2.302678     -0.737198
  H      -7.756426     -3.699719      1.048209
  O      -8.456423     -3.581665      0.377789
  H      -8.337114     -4.326379     -0.240863
  H      -7.287804      1.628060     -5.215484
  O      -7.887704      0.891863     -4.988454
  H      -8.784355      1.311195     -4.961021
  H      -6.825468     -5.203137     -1.402554
  O      -7.756024     -5.460407     -1.623578
  H      -7.876169     -5.080408     -2.520792
  H      -7.795953      0.051248     -1.895929
  O      -7.385097      0.844238     -2.283946
  H      -7.547461      0.821783     -3.251502
  H     -10.107518      3.036158     -5.059343
  O     -10.224338      2.134860     -4.728764
  H     -10.325322      2.308676     -3.763017
  H      -8.918665     -2.947567     -4.051229
  O      -9.487891     -2.156066     -3.939964
  H      -9.159375     -1.533695     -4.600059
  H     -10.431954      4.052838     -2.833449
  O     -10.482478      3.285273     -2.241284
  H      -9.621533      3.311172     -1.768969
  S     -12.189589     -0.894196     -1.561987
  H     -11.587609     -1.092036     -2.752017
  H     -11.738585      0.374978     -1.474370
30
Coordinates from ORCA-job neb_41_477_CI_MEP.QMRegion E -2059.689152024480
  H      -7.594844      3.846379     -1.936626
  O      -7.896695      3.280024     -1.191257
  H      -7.744070      2.364129     -1.533952
  H      -9.047007     -1.853932     -2.134817
  O      -8.482322     -1.595297     -1.383031
  H      -8.513851     -2.321024     -0.708041
  H      -7.768370     -3.712128      1.074345
  O      -8.481050     -3.596305      0.416544
  H      -8.371289     -4.342024     -0.201679
  H      -7.303652      1.631065     -5.186659
  O      -7.896693      0.891370     -4.954374
  H      -8.798259      1.299710     -4.934004
  H      -6.838493     -5.201348     -1.388019
  O      -7.767536     -5.463205     -1.608749
  H      -7.889483     -5.085798     -2.505858
  H      -7.811859      0.037791     -1.875322
  O      -7.399806      0.830570     -2.261282
  H      -7.566641      0.812080     -3.229069
  H     -10.132511      3.013979     -5.046812
  O     -10.251103      2.115452     -4.710061
  H     -10.356287      2.296342     -3.745799
  H      -8.969075     -3.007137     -3.992543
  O      -9.574309     -2.245360     -3.860400
  H      -9.314202     -1.616656     -4.543477
  H     -10.437088      4.057815     -2.831123
  O     -10.501617      3.294219     -2.235252
  H      -9.644704      3.312126     -1.757250
  S     -12.311424     -1.417060     -1.350861
  H     -11.662499     -1.461099     -2.531517
  H     -11.804477     -0.203366     -1.050283
30
Coordinates from ORCA-job neb_41_477_CI_MEP.QMRegion E -2059.689207160513
  H      -7.603877      3.856557     -1.931145
  O      -7.903718      3.293635     -1.182729
  H      -7.756706      2.376829     -1.524350
  H      -9.035238     -1.878298     -2.138661
  O      -8.491967     -1.598037     -1.376694
  H      -8.506717     -2.326104     -0.702723
  H      -7.770921     -3.704375      1.085209
  O      -8.486091     -3.585687      0.430050
  H      -8.387682     -4.337322     -0.182182
  H      -7.315618      1.641335     -5.164644
  O      -7.906171      0.901468     -4.926881
  H      -8.808764      1.306713     -4.903624
  H      -6.841679     -5.198487     -1.381474
  O      -7.770529     -5.460871     -1.602276
  H      -7.891402     -5.085519     -2.499901
  H      -7.819956      0.047246     -1.862565
  O      -7.405004      0.839140     -2.245652
  H      -7.574262      0.824317     -3.213818
  H     -10.155009      3.016150     -5.004742
  O     -10.275656      2.114044     -4.677594
  H     -10.395608      2.287767     -3.714482
  H      -8.993633     -3.049000     -3.956247
  O      -9.628484     -2.318934     -3.785356
  H      -9.448262     -1.675397     -4.480433
  H     -10.454294      4.076796     -2.817575
  O     -10.532677      3.324493     -2.209477
  H      -9.674995      3.333625     -1.734513
  S     -12.418161     -1.942086     -1.216335
  H     -11.635561     -2.031925     -2.310763
  H     -11.709019     -0.902969     -0.728040
30
Coordinates from ORCA-job neb_41_477_CI_MEP.QMRegion E -2059.689111067783
  H      -7.602195      3.850135     -1.931139
  O      -7.901180      3.287594     -1.182266
  H      -7.753747      2.370125     -1.521783
  H      -9.041163     -1.906817     -2.113175
  O      -8.492913     -1.615350     -1.357651
  H      -8.486583     -2.346063     -0.686485
  H      -7.772985     -3.717006      1.100168
  O      -8.492285     -3.600851      0.448268
  H      -8.394741     -4.352453     -0.164310
  H      -7.311539      1.640815     -5.154508
  O      -7.896205      0.896639     -4.916365
  H      -8.803680      1.290614     -4.903810
  H      -6.841273     -5.199681     -1.378705
  O      -7.770686     -5.461913     -1.597962
  H      -7.891782     -5.089778     -2.496611
  H      -7.824954      0.042056     -1.856269
  O      -7.404913      0.829903     -2.240403
  H      -7.574163      0.815934     -3.209236
  H     -10.159059      2.986175     -5.032467
  O     -10.276691      2.089916     -4.690002
  H     -10.390950      2.277774     -3.727992
  H      -9.032594     -3.109516     -3.899666
  O      -9.700406     -2.419909     -3.690325
  H      -9.617645     -1.777253     -4.403965
  H     -10.439759      4.066556     -2.837300
  O     -10.522729      3.311402     -2.233044
  H      -9.670856      3.320012     -1.748317
  S     -12.447024     -2.344417     -1.053739
  H     -11.609519     -2.369554     -2.110367
  H     -11.543996     -1.698085     -0.287345
30
Coordinates from ORCA-job neb_41_477_CI_MEP.QMRegion E -2059.689534927241
  H      -7.597655      3.844597     -1.926928
  O      -7.897047      3.284895     -1.176273
  H      -7.746286      2.365432     -1.509406
  H      -9.037347     -1.931351     -2.062841
  O      -8.467479     -1.639243     -1.323755
  H      -8.454272     -2.366981     -0.650919
  H      -7.778388     -3.731185      1.139630
  O      -8.504362     -3.624082      0.491865
  H      -8.398003     -4.373483     -0.122099
  H      -7.294462      1.632276     -5.133333
  O      -7.869312      0.881884     -4.891616
  H      -8.784048      1.257703     -4.898465
  H      -6.837448     -5.201356     -1.361411
  O      -7.768716     -5.462239     -1.577171
  H      -7.891344     -5.091064     -2.475071
  H      -7.812112      0.034979     -1.831137
  O      -7.401045      0.824121     -2.220510
  H      -7.564885      0.802026     -3.190777
  H     -10.140397      2.937984     -5.068648
  O     -10.256324      2.050806     -4.704534
  H     -10.361284      2.258646     -3.744398
  H      -9.047122     -3.177398     -3.825162
  O      -9.745037     -2.528976     -3.582002
  H      -9.778214     -1.919036     -4.326663
  H     -10.421603      4.041568     -2.857793
  O     -10.501290      3.279009     -2.262148
  H      -9.658086      3.296314     -1.762687
  S     -12.347124     -2.737960     -0.812375
  H     -11.522774     -2.734361     -1.879899
  H     -11.327155     -2.525472      0.044284
30
Coordinates from ORCA-job neb_41_477_CI_MEP.QMRegion E -2059.690913727564
  H      -7.607340      3.866130     -1.922863
  O      -7.910702      3.310361     -1.171105
  H      -7.764932      2.389953     -1.503307
  H      -9.070174     -1.927107     -2.021451
  O      -8.468013     -1.623315     -1.313274
  H      -8.470553     -2.323742     -0.616587
  H      -7.805612     -3.708291      1.186340
  O      -8.527693     -3.608507      0.531823
  H      -8.396557     -4.347210     -0.091147
  H      -7.287010      1.634487     -5.122635
  O      -7.859516      0.883665     -4.877093
  H      -8.776515      1.250368     -4.903491
  H      -6.843317     -5.193332     -1.332723
  O      -7.777482     -5.449644     -1.542641
  H      -7.900967     -5.078450     -2.439728
  H      -7.830776      0.060940     -1.818779
  O      -7.409508      0.845111     -2.206915
  H      -7.570562      0.820341     -3.177885
  H     -10.137716      2.924143     -5.111976
  O     -10.258689      2.043548     -4.734771
  H     -10.367906      2.264793     -3.778084
  H      -9.076963     -3.232490     -3.752702
  O      -9.807204     -2.640155     -3.466322
  H      -9.965637     -2.064976     -4.221750
  H     -10.430251      4.047553     -2.899630
  O     -10.514256      3.289783     -2.297246
  H      -9.677335      3.316507     -1.788956
  S     -12.026715     -3.358904     -0.479978
  H     -11.351110     -3.280578     -1.644893
  H     -10.887361     -3.444355      0.239669
