27
Coordinates from ORCA-job neb_9_41_CI_MEP.QMRegion E -1988.357043198080
  H      -7.550164      3.879358     -1.902235
  O      -7.849829      3.313669     -1.153612
  H      -7.701562      2.395423     -1.494432
  H      -9.018829     -1.816856     -2.175661
  O      -8.500001     -1.562348     -1.381548
  H      -8.572998     -2.299115     -0.725729
  H      -7.308827      1.690746     -5.146148
  O      -7.901313      0.952644     -4.906669
  H      -8.800311      1.362455     -4.860926
  H      -7.807838      0.084435     -1.829558
  O      -7.385366      0.867382     -2.222505
  H      -7.556612      0.846973     -3.189951
  H     -10.101321      3.102292     -4.945855
  O     -10.234392      2.212470     -4.582062
  H     -10.283587      2.421872     -3.617834
  H      -8.921338     -2.945341     -4.008242
  O      -9.512597     -2.174869     -3.855025
  H      -9.238017     -1.525409     -4.512472
  H     -10.288442      4.225597     -2.697865
  O     -10.421303      3.447762     -2.128473
  H      -9.585898      3.396886     -1.613550
  H      -9.788466      5.957675     -4.639387
  O     -10.238770      5.108631     -4.436496
  H     -11.185194      5.273963     -4.554987
  S     -13.338532      3.782568     -3.942777
  H     -12.696016      3.652834     -2.762507
  H     -12.545817      2.841008     -4.500001
27
Coordinates from ORCA-job neb_9_41_CI_MEP.QMRegion E -1988.350765019406
  H      -7.525778      3.948838     -1.897491
  O      -7.848672      3.389209     -1.152815
  H      -7.711770      2.472109     -1.500608
  H      -8.993205     -1.739008     -2.186301
  O      -8.486992     -1.513591     -1.375805
  H      -8.579565     -2.261195     -0.737689
  H      -7.281751      1.705595     -5.182117
  O      -7.902968      0.989541     -4.945926
  H      -8.783567      1.442093     -4.939778
  H      -7.805382      0.166989     -1.848295
  O      -7.385388      0.947316     -2.246614
  H      -7.565793      0.923975     -3.212597
  H     -10.110476      3.238227     -5.101916
  O     -10.172225      2.362202     -4.694640
  H     -10.187137      2.606587     -3.733857
  H      -8.854836     -2.830932     -4.058633
  O      -9.400761     -2.030090     -3.903590
  H      -9.090021     -1.384947     -4.549581
  H     -10.407682      4.306520     -2.718330
  O     -10.374267      3.472870     -2.224986
  H      -9.524779      3.506799     -1.731718
  H      -9.831112      6.044800     -4.682733
  O     -10.415972      5.267803     -4.529191
  H     -11.285738      5.584950     -4.790514
  S     -13.432708      1.817145     -3.148299
  H     -12.495951      1.707783     -2.184803
  H     -12.494792      2.192098     -4.043699
27
Coordinates from ORCA-job neb_9_41_CI_MEP.QMRegion E -1988.349651768119
  H      -7.536993      3.916853     -1.900128
  O      -7.854828      3.356222     -1.154982
  H      -7.714965      2.437635     -1.497893
  H      -9.006210     -1.772881     -2.179974
  O      -8.498394     -1.535102     -1.373636
  H      -8.583339     -2.279304     -0.729162
  H      -7.292713      1.690749     -5.165417
  O      -7.903566      0.966707     -4.928737
  H      -8.793372      1.402574     -4.919600
  H      -7.810421      0.128910     -1.838041
  O      -7.389966      0.909847     -2.235698
  H      -7.570003      0.887126     -3.201857
  H     -10.133865      3.155155     -5.104923
  O     -10.196212      2.289594     -4.677641
  H     -10.211205      2.554123     -3.721709
  H      -8.880965     -2.872751     -4.037714
  O      -9.441591     -2.081561     -3.882074
  H      -9.140892     -1.433714     -4.529997
  H     -10.400909      4.271043     -2.730668
  O     -10.392579      3.439633     -2.232391
  H      -9.548314      3.460934     -1.730711
  H      -9.826635      6.016734     -4.682047
  O     -10.405427      5.234843     -4.534106
  H     -11.276152      5.545616     -4.799923
  S     -13.407700      1.406627     -2.966166
  H     -12.381136      1.009074     -2.186156
  H     -12.564210      2.110935     -3.748971
27
Coordinates from ORCA-job neb_9_41_CI_MEP.QMRegion E -1988.349530888879
  H      -7.549622      3.918490     -1.901330
  O      -7.866758      3.359676     -1.155050
  H      -7.725537      2.440597     -1.495324
  H      -9.010642     -1.782106     -2.177810
  O      -8.500404     -1.537366     -1.374883
  H      -8.581283     -2.279163     -0.726786
  H      -7.300071      1.698844     -5.150243
  O      -7.905548      0.971002     -4.911736
  H      -8.800029      1.398046     -4.901912
  H      -7.811907      0.127491     -1.829739
  O      -7.392907      0.909724     -2.226210
  H      -7.572480      0.887772     -3.192882
  H     -10.179751      3.105923     -5.112599
  O     -10.223657      2.249394     -4.666802
  H     -10.250859      2.531861     -3.717530
  H      -8.904107     -2.893693     -4.021897
  O      -9.479327     -2.113668     -3.861151
  H      -9.200403     -1.462262     -4.515144
  H     -10.410244      4.277394     -2.749573
  O     -10.430439      3.453381     -2.238789
  H      -9.590410      3.459128     -1.731012
  H      -9.835520      6.017996     -4.684374
  O     -10.419329      5.239356     -4.539028
  H     -11.286699      5.556290     -4.808611
  S     -13.391626      1.084207     -2.784091
  H     -12.287594      0.448402     -2.341007
  H     -12.649620      2.066053     -3.333326
27
Coordinates from ORCA-job neb_9_41_CI_MEP.QMRegion E -1988.349760089679
  H      -7.533912      3.878810     -1.910503
  O      -7.846453      3.310568     -1.169328
  H      -7.692754      2.394211     -1.512927
  H      -9.005400     -1.799590     -2.184763
  O      -8.500682     -1.552635     -1.380585
  H      -8.580868     -2.292243     -0.729012
  H      -7.275710      1.672631     -5.173868
  O      -7.878149      0.940263     -4.942225
  H      -8.775643      1.365151     -4.925932
  H      -7.802949      0.093227     -1.850524
  O      -7.375849      0.870077     -2.249475
  H      -7.549570      0.847873     -3.216828
  H     -10.118986      3.060111     -5.140362
  O     -10.172063      2.204621     -4.694063
  H     -10.199959      2.487981     -3.745545
  H      -8.885549     -2.892938     -4.042108
  O      -9.442963     -2.095136     -3.903668
  H      -9.107880     -1.452804     -4.540530
  H     -10.303138      4.237152     -2.791234
  O     -10.377395      3.419874     -2.273011
  H      -9.552373      3.392248     -1.740022
  H      -9.778548      5.986753     -4.683676
  O     -10.327147      5.183162     -4.536809
  H     -11.216436      5.472876     -4.761713
  S     -13.142853      0.959874     -2.534165
  H     -12.094847      0.140559     -2.747262
  H     -12.399762      2.040221     -2.842602
27
Coordinates from ORCA-job neb_9_41_CI_MEP.QMRegion E -1988.350330027657
  H      -7.521809      3.840560     -1.921927
  O      -7.832544      3.266793     -1.184327
  H      -7.659545      2.350400     -1.521229
  H      -8.993018     -1.819947     -2.172941
  O      -8.486496     -1.568848     -1.372127
  H      -8.561092     -2.307676     -0.717059
  H      -7.250747      1.651613     -5.163354
  O      -7.843274      0.911757     -4.930615
  H      -8.750957      1.317123     -4.925667
  H      -7.773752      0.051217     -1.840191
  O      -7.355176      0.830950     -2.243776
  H      -7.518215      0.801760     -3.212627
  H     -10.067199      2.981437     -5.157851
  O     -10.146081      2.122586     -4.722300
  H     -10.185249      2.393954     -3.771655
  H      -8.875916     -2.911617     -4.031515
  O      -9.418784     -2.100313     -3.908111
  H      -9.040713     -1.468372     -4.531338
  H     -10.293537      4.133013     -2.794918
  O     -10.353373      3.312745     -2.279396
  H      -9.522001      3.297366     -1.752818
  H      -9.723758      5.934874     -4.673153
  O     -10.247566      5.113839     -4.535504
  H     -11.139732      5.373952     -4.784434
  S     -12.772357      0.562589     -2.312944
  H     -11.839141     -0.170534     -2.952581
  H     -12.038726      1.691075     -2.412062
27
Coordinates from ORCA-job neb_9_41_CI_MEP.QMRegion E -1988.351027013461
  H      -7.527676      3.832170     -1.936992
  O      -7.828551      3.243691     -1.206893
  H      -7.646715      2.334738     -1.558797
  H      -9.011643     -1.807080     -2.169736
  O      -8.473311     -1.577857     -1.388964
  H      -8.565417     -2.309006     -0.728022
  H      -7.287832      1.668238     -5.213760
  O      -7.883041      0.926049     -4.996394
  H      -8.789227      1.330811     -4.978583
  H      -7.795891      0.055145     -1.887165
  O      -7.354864      0.819502     -2.296250
  H      -7.540863      0.801509     -3.259926
  H     -10.162807      2.998294     -5.152191
  O     -10.221042      2.121405     -4.750555
  H     -10.259229      2.352131     -3.790187
  H      -8.873027     -2.887916     -4.086769
  O      -9.411950     -2.071066     -3.989645
  H      -9.029399     -1.455894     -4.626664
  H     -10.387172      4.041180     -2.724292
  O     -10.379585      3.202501     -2.237624
  H      -9.521793      3.221602     -1.754424
  H      -9.770046      5.942481     -4.610116
  O     -10.323672      5.146661     -4.446075
  H     -11.206646      5.435248     -4.696788
  S     -11.912392     -0.194314     -1.828070
  H     -11.330075     -0.727112     -2.921635
  H     -11.423878      1.039273     -2.077934
