24
Coordinates from ORCA-job neb_84_109_CI_MEP.QMRegion E -1917.024049710030
  H       4.190501      5.523868      0.261320
  O       4.597292      5.569640      1.147834
  H       4.006772      6.182256      1.629650
  H       6.442737      1.023651      4.644011
  O       6.119330      1.508731      5.423537
  H       6.345083      2.435661      5.205905
  H       3.938691      4.567872      6.349636
  O       4.125912      5.258591      5.701412
  H       3.546479      5.015798      4.935502
  H       5.598967      3.697470      3.601379
  O       6.205692      4.028353      4.287830
  H       5.612264      4.565956      4.848906
  H       4.546916      3.936394      1.676747
  O       4.380398      3.031442      2.026999
  H       5.056394      2.442274      1.668791
  H       4.797989      8.675850      0.056597
  O       5.020888      8.972391      0.960341
  H       5.771074      8.424389      1.231455
  H       3.584147      8.315681      1.839681
  O       2.846347      7.681226      1.962496
  H       2.345714      7.923617      2.762657
  S       7.687483      6.602104      2.105578
  H       6.703326      6.048289      1.363509
  H       7.289836      5.885604      3.183795
24
Coordinates from ORCA-job neb_84_109_CI_MEP.QMRegion E -1917.019079312157
  H       4.202201      5.545667      0.222340
  O       4.609309      5.616239      1.107765
  H       3.973741      6.187596      1.580707
  H       6.425947      1.004727      4.594669
  O       6.105473      1.477220      5.383739
  H       6.309688      2.408753      5.160912
  H       3.908350      4.580015      6.281713
  O       4.105689      5.271974      5.638230
  H       3.518817      5.034340      4.872785
  H       5.538624      3.649527      3.531481
  O       6.125815      3.956667      4.246289
  H       5.531329      4.516180      4.785274
  H       4.552540      3.956640      1.603525
  O       4.378736      3.050836      1.952083
  H       5.052576      2.456016      1.596461
  H       4.660078      8.738036     -0.063709
  O       4.932490      9.002909      0.841391
  H       5.629900      8.374423      1.056521
  H       3.532503      8.322139      1.771261
  O       2.809315      7.675770      1.915460
  H       2.307708      7.923726      2.712898
  S       8.071081      6.780961      3.500369
  H       7.237991      6.441809      2.496517
  H       7.708157      5.661777      4.161528
24
Coordinates from ORCA-job neb_84_109_CI_MEP.QMRegion E -1917.019074300508
  H       4.257617      5.560754      0.253275
  O       4.647518      5.647784      1.143080
  H       3.976414      6.180061      1.612956
  H       6.445009      1.011964      4.661951
  O       6.118925      1.499942      5.437726
  H       6.299217      2.431881      5.189724
  H       3.939626      4.597194      6.297726
  O       4.119582      5.295157      5.655124
  H       3.530002      5.055119      4.895081
  H       5.563344      3.643838      3.542302
  O       6.140611      3.957571      4.262952
  H       5.551041      4.544209      4.777230
  H       4.607034      3.977895      1.627658
  O       4.420828      3.076034      1.978056
  H       5.082927      2.470438      1.619296
  H       4.652697      8.714988     -0.081061
  O       4.968163      8.937288      0.822243
  H       5.605670      8.235999      0.997359
  H       3.527324      8.319868      1.788270
  O       2.803028      7.678917      1.941682
  H       2.305515      7.936307      2.739771
  S       8.158259      6.773772      4.126863
  H       7.167152      6.863760      3.220339
  H       7.857378      5.476407      4.336941
24
Coordinates from ORCA-job neb_84_109_CI_MEP.QMRegion E -1917.019101092071
  H       4.225028      5.564119      0.254175
  O       4.614637      5.644576      1.144991
  H       3.950784      6.186946      1.613844
  H       6.440817      1.011104      4.637275
  O       6.117127      1.493029      5.418261
  H       6.301587      2.425377      5.177318
  H       3.941746      4.616810      6.302170
  O       4.119200      5.302852      5.646070
  H       3.528293      5.048357      4.890911
  H       5.534047      3.642774      3.539775
  O       6.127061      3.955579      4.247605
  H       5.547877      4.537999      4.777757
  H       4.573929      3.976942      1.624667
  O       4.395376      3.070856      1.969903
  H       5.069019      2.475188      1.616451
  H       4.673205      8.713189     -0.060935
  O       4.996072      8.908952      0.844954
  H       5.594313      8.171386      1.015044
  H       3.531674      8.327669      1.792053
  O       2.803439      7.689849      1.940962
  H       2.301297      7.944660      2.737075
  S       8.183414      6.744177      4.624086
  H       7.032375      7.078805      4.002073
  H       7.910843      5.432941      4.449989
24
Coordinates from ORCA-job neb_84_109_CI_MEP.QMRegion E -1917.019057714990
  H       4.212289      5.575563      0.271285
  O       4.602258      5.651945      1.162414
  H       3.939280      6.192256      1.635307
  H       6.435008      1.024168      4.644507
  O       6.115625      1.507493      5.426163
  H       6.297353      2.439970      5.182907
  H       3.956658      4.635397      6.313050
  O       4.118761      5.317007      5.648591
  H       3.521792      5.054047      4.901293
  H       5.520631      3.648912      3.534275
  O       6.114846      3.964100      4.239908
  H       5.533799      4.539015      4.775796
  H       4.565838      3.979807      1.637896
  O       4.387202      3.071918      1.977451
  H       5.065126      2.479590      1.626904
  H       4.700752      8.686980     -0.027466
  O       5.023533      8.859159      0.882269
  H       5.575839      8.087328      1.057343
  H       3.534537      8.325655      1.815355
  O       2.797220      7.696313      1.954570
  H       2.295641      7.950117      2.751404
  S       8.018020      6.653409      5.274642
  H       6.894434      7.087399      4.668226
  H       7.879783      5.433461      4.713918
24
Coordinates from ORCA-job neb_84_109_CI_MEP.QMRegion E -1917.019105551136
  H       4.206935      5.584315      0.271347
  O       4.593153      5.661665      1.164200
  H       3.922521      6.192772      1.637530
  H       6.430883      1.038392      4.638024
  O       6.111716      1.528362      5.415479
  H       6.292370      2.459566      5.165364
  H       3.985305      4.658446      6.296058
  O       4.122079      5.342954      5.628868
  H       3.518995      5.069594      4.889479
  H       5.520416      3.658612      3.506750
  O       6.112914      3.979638      4.211194
  H       5.527903      4.553027      4.743022
  H       4.565725      3.985111      1.630271
  O       4.386589      3.077132      1.968710
  H       5.065083      2.484356      1.619927
  H       4.720467      8.655624     -0.020466
  O       5.046897      8.798299      0.892759
  H       5.539034      7.985640      1.066611
  H       3.533143      8.321010      1.819713
  O       2.788899      7.699333      1.956590
  H       2.289070      7.955891      2.753635
  S       7.797472      6.393688      6.063239
  H       6.688753      6.945585      5.529567
  H       7.811710      5.426755      5.120368
24
Coordinates from ORCA-job neb_84_109_CI_MEP.QMRegion E -1917.019165429791
  H       4.206971      5.595510      0.264414
  O       4.590629      5.682798      1.157600
  H       3.906703      6.199670      1.628793
  H       6.426574      1.057786      4.620655
  O       6.107953      1.551705      5.395805
  H       6.284158      2.482556      5.140879
  H       4.018399      4.690769      6.264165
  O       4.131606      5.382497      5.600006
  H       3.528003      5.098837      4.863407
  H       5.531817      3.691477      3.485476
  O       6.127104      4.008154      4.189241
  H       5.546899      4.594613      4.709606
  H       4.574955      3.998803      1.615460
  O       4.395306      3.092989      1.958181
  H       5.070871      2.496495      1.610177
  H       4.724567      8.643996     -0.032178
  O       5.061947      8.750084      0.881877
  H       5.488608      7.896833      1.039925
  H       3.531520      8.324300      1.813403
  O       2.784114      7.707198      1.955906
  H       2.285761      7.968356      2.752558
  S       7.489141      6.003777      6.812206
  H       6.353114      6.560572      6.346503
  H       7.671890      5.325731      5.660606
