30
Coordinates from ORCA-job neb_21_29_CI_MEP.QMRegion E -2059.693559255571
  H      -2.202588     -8.012313      0.622201
  O      -1.790426     -7.500333      1.350734
  H      -2.508862     -7.096578      1.843967
  H      -5.919940     -7.946276     -0.573943
  O      -5.137087     -8.033488      0.028854
  H      -5.102410     -7.233959      0.583918
  H      -6.876699     -5.149268     -1.402841
  O      -7.799161     -5.408825     -1.648609
  H      -7.918447     -4.977467     -2.528110
  H      -2.941067     -9.784796     -0.528432
  O      -2.777380     -8.884822     -0.853955
  H      -3.669349     -8.463092     -0.732773
  H      -5.391737     -5.749890     -5.469004
  O      -5.984304     -5.053904     -5.784934
  H      -5.387055     -4.294874     -5.947526
  H      -2.392024     -5.880169     -2.135967
  O      -3.297535     -5.704468     -2.418887
  H      -3.394449     -6.039157     -3.336151
  H      -2.924700     -5.949797     -5.457027
  O      -3.523999     -6.561342     -4.981606
  H      -3.012397     -7.368874     -4.804365
  H      -7.937027     -8.507237     -1.437630
  O      -7.176000     -7.999842     -1.733087
  H      -7.507791     -7.063844     -1.788683
  H      -2.252814     -8.786447     -2.661959
  O      -2.023569     -8.478949     -3.563031
  H      -1.332406     -9.051510     -3.927385
  S      -4.493385    -11.234882      0.824308
  H      -5.072022    -10.008003      0.753888
  H      -3.999373    -10.991988      2.056687
30
Coordinates from ORCA-job neb_21_29_CI_MEP.QMRegion E -2059.691793687346
  H      -2.166392     -8.037847      0.702905
  O      -1.756620     -7.514727      1.423246
  H      -2.476014     -7.143565      1.939642
  H      -5.878480     -7.916064     -0.477185
  O      -5.063320     -8.013876      0.069612
  H      -5.020185     -7.227317      0.644389
  H      -6.859357     -5.126451     -1.330852
  O      -7.786125     -5.380829     -1.579074
  H      -7.904668     -4.952192     -2.457135
  H      -2.881434     -9.764546     -0.638697
  O      -2.718662     -8.827590     -0.831461
  H      -3.621565     -8.429020     -0.676396
  H      -5.374777     -5.726824     -5.375924
  O      -5.969077     -5.043350     -5.714133
  H      -5.380792     -4.276238     -5.873404
  H      -2.367958     -5.867230     -2.050752
  O      -3.271161     -5.691678     -2.341222
  H      -3.365324     -6.027068     -3.257727
  H      -2.927886     -5.913821     -5.379305
  O      -3.523076     -6.523318     -4.895677
  H      -3.009860     -7.332275     -4.726237
  H      -8.026977     -8.401238     -1.220902
  O      -7.241892     -7.978518     -1.580186
  H      -7.513640     -7.025807     -1.681551
  H      -2.244922     -8.728584     -2.626565
  O      -2.025954     -8.453780     -3.542968
  H      -1.333781     -9.030398     -3.897438
  S      -4.631801    -11.520201     -0.560677
  H      -5.265299    -10.467726     -1.126543
  H      -4.994902    -11.078352      0.669126
30
Coordinates from ORCA-job neb_21_29_CI_MEP.QMRegion E -2059.691906870666
  H      -2.162919     -8.063139      0.709889
  O      -1.758225     -7.532986      1.426970
  H      -2.482442     -7.168023      1.941038
  H      -5.879322     -7.915958     -0.454010
  O      -5.049263     -8.007330      0.068524
  H      -5.005687     -7.227704      0.652835
  H      -6.859966     -5.125324     -1.330084
  O      -7.787635     -5.377918     -1.576717
  H      -7.907436     -4.951402     -2.455502
  H      -2.868869     -9.770952     -0.704782
  O      -2.710800     -8.826688     -0.846001
  H      -3.616737     -8.436840     -0.681627
  H      -5.377833     -5.727602     -5.377743
  O      -5.973321     -5.044817     -5.715248
  H      -5.385527     -4.276968     -5.872174
  H      -2.369477     -5.871371     -2.051091
  O      -3.273000     -5.695247     -2.340146
  H      -3.369176     -6.028674     -3.257036
  H      -2.935709     -5.909215     -5.378627
  O      -3.528773     -6.521582     -4.895948
  H      -3.009729     -7.326802     -4.724600
  H      -8.069859     -8.368629     -1.163103
  O      -7.275448     -7.975777     -1.535715
  H      -7.526355     -7.019852     -1.659255
  H      -2.249481     -8.718117     -2.639818
  O      -2.032640     -8.449678     -3.558756
  H      -1.338560     -9.026269     -3.910206
  S      -4.772561    -11.481225     -1.232267
  H      -5.201540    -10.439956     -1.974561
  H      -5.429180    -11.027781     -0.145208
30
Coordinates from ORCA-job neb_21_29_CI_MEP.QMRegion E -2059.691873647832
  H      -2.165767     -8.083069      0.685402
  O      -1.762941     -7.546505      1.398482
  H      -2.488745     -7.185850      1.913367
  H      -5.880410     -7.917768     -0.459204
  O      -5.044110     -8.004525      0.052725
  H      -4.999844     -7.226765      0.638970
  H      -6.864639     -5.125314     -1.349962
  O      -7.791535     -5.378308     -1.596107
  H      -7.911997     -4.953017     -2.476260
  H      -2.896054     -9.781469     -0.781442
  O      -2.722934     -8.835969     -0.879759
  H      -3.625891     -8.440892     -0.708650
  H      -5.383912     -5.723053     -5.399537
  O      -5.980788     -5.040769     -5.736425
  H      -5.394292     -4.271609     -5.892999
  H      -2.374580     -5.871135     -2.071565
  O      -3.278584     -5.695055     -2.358981
  H      -3.375091     -6.024723     -3.277403
  H      -2.945278     -5.900557     -5.398616
  O      -3.537530     -6.515135     -4.917003
  H      -3.015178     -7.318092     -4.744279
  H      -8.088635     -8.353059     -1.142517
  O      -7.292683     -7.977187     -1.529150
  H      -7.534525     -7.020335     -1.664366
  H      -2.258712     -8.709792     -2.665981
  O      -2.041183     -8.441851     -3.585279
  H      -1.347059     -9.018807     -3.937185
  S      -4.866371    -11.350802     -1.768201
  H      -5.156343    -10.282761     -2.539960
  H      -5.662382    -10.905701     -0.775033
30
Coordinates from ORCA-job neb_21_29_CI_MEP.QMRegion E -2059.691875495337
  H      -2.168234     -8.099504      0.646787
  O      -1.766027     -7.554120      1.352907
  H      -2.491857     -7.203058      1.874139
  H      -5.877501     -7.927751     -0.475780
  O      -5.041149     -8.006518      0.036417
  H      -4.994718     -7.219416      0.609380
  H      -6.867737     -5.122836     -1.374045
  O      -7.792517     -5.378828     -1.620823
  H      -7.912550     -4.953301     -2.502390
  H      -2.953670     -9.791436     -0.884969
  O      -2.746370     -8.849309     -0.926554
  H      -3.639532     -8.436995     -0.741245
  H      -5.388066     -5.711252     -5.426638
  O      -5.987338     -5.031272     -5.764664
  H      -5.400689     -4.261543     -5.920199
  H      -2.378355     -5.865842     -2.096406
  O      -3.281680     -5.687208     -2.384336
  H      -3.377696     -6.014823     -3.304052
  H      -2.951696     -5.887188     -5.425485
  O      -3.544935     -6.501301     -4.942942
  H      -3.022860     -7.304835     -4.772271
  H      -8.087328     -8.347342     -1.125893
  O      -7.300157     -7.985254     -1.542678
  H      -7.535590     -7.026683     -1.678890
  H      -2.273252     -8.697702     -2.696968
  O      -2.052555     -8.430769     -3.616523
  H      -1.358024     -9.009504     -3.965529
  S      -4.937045    -11.119240     -2.253492
  H      -5.053661    -10.040838     -3.056520
  H      -5.834797    -10.624481     -1.377228
30
Coordinates from ORCA-job neb_21_29_CI_MEP.QMRegion E -2059.691883840386
  H      -2.169415     -8.109070      0.618094
  O      -1.769336     -7.558738      1.320118
  H      -2.496584     -7.212601      1.842738
  H      -5.867041     -7.930801     -0.495571
  O      -5.031493     -7.995667      0.018708
  H      -4.995705     -7.206173      0.588495
  H      -6.866256     -5.127696     -1.379040
  O      -7.789236     -5.388637     -1.627393
  H      -7.910702     -4.959811     -2.507225
  H      -3.015527     -9.789644     -0.986526
  O      -2.771711     -8.856369     -0.977243
  H      -3.651978     -8.422564     -0.774544
  H      -5.392061     -5.701164     -5.451118
  O      -5.995222     -5.020103     -5.779824
  H      -5.408467     -4.250148     -5.934432
  H      -2.378712     -5.861620     -2.112186
  O      -3.282948     -5.683956     -2.398397
  H      -3.377994     -6.003364     -3.321114
  H      -2.956912     -5.876958     -5.442146
  O      -3.554166     -6.491028     -4.963558
  H      -3.031731     -7.294476     -4.792547
  H      -8.071079     -8.344099     -1.083829
  O      -7.300802     -7.999912     -1.545121
  H      -7.531838     -7.041448     -1.693484
  H      -2.297046     -8.680415     -2.720447
  O      -2.061605     -8.414556     -3.638198
  H      -1.372828     -9.003879     -3.980210
  S      -5.013652    -10.852378     -2.711951
  H      -4.905776     -9.797528     -3.545878
  H      -5.993226    -10.246019     -2.011926
30
Coordinates from ORCA-job neb_21_29_CI_MEP.QMRegion E -2059.691934446237
  H      -2.171973     -8.185039      0.583646
  O      -1.775154     -7.628530      1.280635
  H      -2.506962     -7.287289      1.800265
  H      -5.842730     -7.950340     -0.490723
  O      -5.009442     -8.010652      0.024228
  H      -4.974888     -7.215381      0.585973
  H      -6.865965     -5.136822     -1.382057
  O      -7.788228     -5.399937     -1.631926
  H      -7.909687     -4.968374     -2.511035
  H      -3.058642     -9.836086     -1.102968
  O      -2.800011     -8.909650     -1.057602
  H      -3.666545     -8.464912     -0.825180
  H      -5.388041     -5.674601     -5.442077
  O      -5.995035     -4.999844     -5.776374
  H      -5.412414     -4.225966     -5.930392
  H      -2.375174     -5.852956     -2.104419
  O      -3.280157     -5.677344     -2.389563
  H      -3.374108     -5.986539     -3.316182
  H      -2.971454     -5.835050     -5.437500
  O      -3.557135     -6.459775     -4.956502
  H      -3.012605     -7.250161     -4.787195
  H      -8.022092     -8.413279     -1.189921
  O      -7.256459     -7.993699     -1.592262
  H      -7.525976     -7.038641     -1.704738
  H      -2.341063     -8.664071     -2.787430
  O      -2.059405     -8.372810     -3.684653
  H      -1.378637     -8.973107     -4.024118
  S      -5.219387    -10.243163     -3.354151
  H      -4.654418     -9.334716     -4.175034
  H      -6.073805     -9.330246     -2.835180
