18
Coordinates from ORCA-job neb_132_294_CI_MEP.QMRegion E -1774.356808394151
  H      -0.686755      4.542252     -4.019098
  O      -1.477858      5.081342     -4.227363
  H      -1.325805      5.937610     -3.776783
  H      -2.121570      6.504445     -6.832914
  O      -2.117974      5.555062     -6.691473
  H      -1.790237      5.415361     -5.744124
  H       0.762718      2.970962     -7.182085
  O       1.693915      2.670044     -7.195465
  H       1.707616      1.891684     -7.789012
  H      -1.584678      3.643716     -7.124923
  O      -1.000100      2.951116     -6.793014
  H      -1.182140      2.112571     -7.289385
  H      -0.239726      0.339580     -8.201577
  O      -1.146578      0.544130     -7.921329
  H      -1.263849      0.042279     -7.092277
  S       0.511719      5.795912     -9.148469
  H       1.490691      5.112661     -8.519464
  H      -0.353133      5.581531     -8.129479
18
Coordinates from ORCA-job neb_132_294_CI_MEP.QMRegion E -1774.356760352307
  H      -0.683690      4.548950     -4.030344
  O      -1.472498      5.088802     -4.245153
  H      -1.324356      5.945961     -3.794873
  H      -2.070188      6.457625     -6.890216
  O      -2.124875      5.516610     -6.711707
  H      -1.785991      5.391668     -5.765168
  H       0.766526      2.967047     -7.165381
  O       1.698439      2.668443     -7.204886
  H       1.699677      1.884233     -7.791007
  H      -1.558440      3.646117     -7.086175
  O      -0.973450      2.949039     -6.763566
  H      -1.164842      2.110034     -7.257882
  H      -0.242826      0.339062     -8.169062
  O      -1.145830      0.552929     -7.884279
  H      -1.265430      0.049158     -7.055669
  S      -0.008124      5.386270     -9.671884
  H       1.020477      4.826218     -9.001571
  H      -0.798702      5.338715     -8.576384
18
Coordinates from ORCA-job neb_132_294_CI_MEP.QMRegion E -1774.356777862112
  H      -0.669362      4.543564     -4.043282
  O      -1.457321      5.083792     -4.262287
  H      -1.312419      5.942676     -3.815549
  H      -1.894828      6.307189     -7.027483
  O      -2.110921      5.419782     -6.734902
  H      -1.775379      5.345635     -5.781839
  H       0.790583      2.949025     -7.161177
  O       1.724938      2.658786     -7.225285
  H       1.718558      1.867247     -7.802089
  H      -1.479996      3.676990     -7.041082
  O      -0.918957      2.940284     -6.753148
  H      -1.139921      2.119137     -7.261445
  H      -0.220131      0.335620     -8.177669
  O      -1.124542      0.552212     -7.898184
  H      -1.250442      0.047837     -7.071429
  S      -0.149277      5.349336     -9.843668
  H       0.779220      4.652224     -9.155533
  H      -1.110235      5.021282     -8.957673
18
Coordinates from ORCA-job neb_132_294_CI_MEP.QMRegion E -1774.356785188311
  H      -0.697925      4.546312     -4.020656
  O      -1.486640      5.082990     -4.243124
  H      -1.340710      5.946823     -3.805239
  H      -1.836097      6.180651     -7.105211
  O      -2.128276      5.348434     -6.729717
  H      -1.796538      5.319088     -5.774449
  H       0.755485      2.932316     -7.153191
  O       1.694242      2.653195     -7.214323
  H       1.698038      1.859458     -7.788061
  H      -1.507132      3.663946     -7.025110
  O      -0.956097      2.904443     -6.766151
  H      -1.207408      2.091309     -7.268957
  H      -0.291193      0.297058     -8.178706
  O      -1.197356      0.505148     -7.901929
  H      -1.307030      0.022095     -7.059047
  S      -0.594848      5.132027    -10.000488
  H       0.247621      4.256694     -9.411478
  H      -1.644187      4.664948     -9.295621
18
Coordinates from ORCA-job neb_132_294_CI_MEP.QMRegion E -1774.356912679660
  H      -0.695121      4.542647     -3.999722
  O      -1.487961      5.076723     -4.214512
  H      -1.335971      5.943652     -3.785270
  H      -1.809041      6.140520     -7.102533
  O      -2.112907      5.321093     -6.709060
  H      -1.792588      5.303938     -5.749690
  H       0.782771      2.942604     -7.151920
  O       1.719167      2.654614     -7.200575
  H       1.721373      1.862932     -7.775848
  H      -1.474071      3.670104     -7.016636
  O      -0.931364      2.902797     -6.756606
  H      -1.189051      2.092313     -7.257318
  H      -0.273310      0.291974     -8.167353
  O      -1.183287      0.499204     -7.902066
  H      -1.296568      0.024558     -7.054640
  S      -1.016871      4.748970    -10.108804
  H      -0.281301      3.703104     -9.683944
  H      -2.103492      4.305179     -9.443702
18
Coordinates from ORCA-job neb_132_294_CI_MEP.QMRegion E -1774.356822102934
  H      -0.708656      4.521940     -3.963162
  O      -1.509050      5.050453     -4.165472
  H      -1.351651      5.922114     -3.748717
  H      -1.848438      6.168121     -7.013570
  O      -2.115187      5.319055     -6.659235
  H      -1.810663      5.282831     -5.694450
  H       0.791358      2.950798     -7.139932
  O       1.723220      2.647084     -7.177430
  H       1.722488      1.865287     -7.764521
  H      -1.448497      3.667162     -7.019240
  O      -0.923224      2.900612     -6.726216
  H      -1.169028      2.090798     -7.231301
  H      -0.258203      0.281273     -8.137918
  O      -1.171860      0.494058     -7.888978
  H      -1.300731      0.021657     -7.041658
  S      -1.585431      4.100615    -10.104598
  H      -1.023738      2.894350     -9.882959
  H      -2.695956      3.757131     -9.418616
18
Coordinates from ORCA-job neb_132_294_CI_MEP.QMRegion E -1774.359378860398
  H      -0.643380      4.572728     -4.033949
  O      -1.432114      5.111935     -4.250075
  H      -1.290046      5.971208     -3.803137
  H      -1.872449      6.246253     -7.088836
  O      -2.106107      5.390418     -6.726521
  H      -1.770447      5.367413     -5.773610
  H       0.892905      3.039391     -7.134629
  O       1.805755      2.685281     -7.175078
  H       1.784615      1.929090     -7.788716
  H      -1.345955      3.742335     -7.033832
  O      -0.814149      3.004177     -6.686490
  H      -0.999893      2.195425     -7.215305
  H      -0.071682      0.376599     -8.134931
  O      -0.988021      0.591577     -7.883010
  H      -1.149694      0.080255     -7.067298
  S      -2.441296      2.989243     -9.979033
  H      -1.999861      1.801401     -9.513756
  H      -3.510893      2.960894     -9.155849
