33
Coordinates from ORCA-job neb_23_242_CI_MEP.QMRegion E -2131.021744505232
  H      -5.147585      5.848362     -5.501772
  O      -4.581668      5.055430     -5.603756
  H      -3.776654      5.292684     -6.104828
  H      -5.902129      4.717965     -2.878643
  O      -6.811823      4.605659     -3.231480
  H      -6.667574      3.875558     -3.878999
  H      -5.460495      3.463723     -5.507146
  O      -5.981130      2.749535     -5.095107
  H      -5.305870      2.166798     -4.677324
  H      -7.438123      1.590355     -5.235786
  O      -7.992677      0.830666     -4.994351
  H      -8.888036      1.209400     -4.792139
  H      -1.770362      6.088344     -7.082691
  O      -2.119878      5.285015     -6.685818
  H      -1.812004      5.269012     -5.724764
  H     -10.324392      2.829973     -4.885610
  O     -10.313979      1.972300     -4.438404
  H     -10.428873      2.252429     -3.497796
  H      -1.327652      3.676009     -6.990303
  O      -0.812803      2.904645     -6.705529
  H      -1.050363      2.118699     -7.261080
  H      -5.902141      7.494650     -4.160844
  O      -6.440601      6.888983     -4.710413
  H      -6.648824      6.127668     -4.113115
  H      -9.929091      5.782624     -4.556966
  O     -10.434099      4.952302     -4.406812
  H     -11.355856      5.203868     -4.505377
  H      -9.356572      8.017832     -4.230820
  O      -9.156457      7.368445     -4.911449
  H      -8.174365      7.313317     -4.905840
  S      -3.125807      5.538259     -9.930552
  H      -2.536846      4.351966     -9.673531
  H      -4.045115      5.336839     -8.964861
33
Coordinates from ORCA-job neb_23_242_CI_MEP.QMRegion E -2131.020868395569
  H      -5.085122      5.842144     -5.498894
  O      -4.518527      5.049452     -5.599094
  H      -3.723061      5.286781     -6.115074
  H      -5.882936      4.695715     -2.877523
  O      -6.791363      4.584092     -3.235370
  H      -6.643050      3.859333     -3.887550
  H      -5.414536      3.463108     -5.516442
  O      -5.948442      2.749218     -5.120623
  H      -5.283923      2.159003     -4.694596
  H      -7.408788      1.592145     -5.248916
  O      -7.970035      0.837313     -5.008147
  H      -8.864775      1.222782     -4.817854
  H      -1.699062      6.138224     -7.043586
  O      -2.043828      5.309585     -6.700134
  H      -1.764679      5.268889     -5.731730
  H     -10.263951      2.870517     -4.895490
  O     -10.279552      2.003474     -4.466073
  H     -10.407821      2.265153     -3.522573
  H      -1.289947      3.680163     -7.006578
  O      -0.801530      2.899748     -6.701700
  H      -1.038821      2.118025     -7.262855
  H      -5.853961      7.476221     -4.153452
  O      -6.385812      6.867193     -4.707215
  H      -6.599154      6.105925     -4.111610
  H      -9.843295      5.796080     -4.544586
  O     -10.359994      4.968343     -4.419274
  H     -11.272776      5.228146     -4.567437
  H      -9.259071      8.015549     -4.145894
  O      -9.078920      7.394007     -4.857457
  H      -8.096856      7.323734     -4.869093
  S      -4.348718      5.397466     -9.800111
  H      -3.986337      4.101354     -9.704180
  H      -5.344229      5.236373     -8.904289
33
Coordinates from ORCA-job neb_23_242_CI_MEP.QMRegion E -2131.020250356203
  H      -5.082728      5.830870     -5.494170
  O      -4.511180      5.040695     -5.579584
  H      -3.723737      5.278342     -6.106047
  H      -5.878388      4.689113     -2.883402
  O      -6.788684      4.577565     -3.237781
  H      -6.644395      3.851343     -3.889114
  H      -5.423970      3.450920     -5.518257
  O      -5.957440      2.737689     -5.120966
  H      -5.290982      2.150997     -4.692241
  H      -7.418239      1.584951     -5.250041
  O      -7.979739      0.830518     -5.008288
  H      -8.874372      1.216838     -4.820887
  H      -1.678437      6.145285     -7.036567
  O      -2.034930      5.317808     -6.702899
  H      -1.760072      5.270254     -5.733830
  H     -10.263193      2.878698     -4.900434
  O     -10.289827      2.009006     -4.476472
  H     -10.419042      2.265973     -3.532273
  H      -1.290839      3.679127     -7.009650
  O      -0.801225      2.900376     -6.702901
  H      -1.036863      2.118523     -7.264556
  H      -5.855320      7.470149     -4.148344
  O      -6.388423      6.862586     -4.702623
  H      -6.598384      6.097904     -4.110046
  H      -9.830104      5.801268     -4.544617
  O     -10.347140      4.970618     -4.437133
  H     -11.256499      5.231161     -4.604082
  H      -9.243684      8.007222     -4.101710
  O      -9.071510      7.399848     -4.827356
  H      -8.089287      7.324359     -4.846492
  S      -5.125257      5.275162     -9.593547
  H      -4.884843      3.947411     -9.585444
  H      -6.174839      5.141730     -8.756776
33
Coordinates from ORCA-job neb_23_242_CI_MEP.QMRegion E -2131.020090374674
  H      -5.098163      5.808975     -5.510738
  O      -4.520658      5.022329     -5.581384
  H      -3.748176      5.254903     -6.130423
  H      -5.885318      4.678584     -2.886728
  O      -6.795549      4.569465     -3.241338
  H      -6.655570      3.841850     -3.892219
  H      -5.436857      3.447775     -5.524234
  O      -5.970510      2.731738     -5.129927
  H      -5.303477      2.147478     -4.699767
  H      -7.439965      1.581421     -5.253107
  O      -7.999230      0.827165     -5.005924
  H      -8.893633      1.214233     -4.818604
  H      -1.678810      6.156710     -7.019020
  O      -2.044304      5.325269     -6.705217
  H      -1.780905      5.265463     -5.733691
  H     -10.270124      2.891207     -4.897134
  O     -10.308576      2.017625     -4.481628
  H     -10.437111      2.268182     -3.535718
  H      -1.302705      3.677179     -7.013683
  O      -0.810953      2.900382     -6.706496
  H      -1.049244      2.117134     -7.265349
  H      -5.856727      7.457112     -4.151425
  O      -6.395280      6.851786     -4.702443
  H      -6.603242      6.086331     -4.110037
  H      -9.827009      5.803164     -4.530489
  O     -10.346200      4.972008     -4.436808
  H     -11.252375      5.234240     -4.617945
  H      -9.234887      7.996310     -4.049241
  O      -9.071281      7.405043     -4.790042
  H      -8.089110      7.326853     -4.820136
  S      -5.824000      5.165578     -9.338979
  H      -5.648245      3.827889     -9.369270
  H      -6.866801      5.059872     -8.489644
33
Coordinates from ORCA-job neb_23_242_CI_MEP.QMRegion E -2131.020229079011
  H      -5.107836      5.778267     -5.543844
  O      -4.516747      5.000662     -5.590702
  H      -3.755052      5.231762     -6.153981
  H      -5.871768      4.670820     -2.899772
  O      -6.783171      4.559221     -3.251918
  H      -6.643429      3.834394     -3.905705
  H      -5.442164      3.440861     -5.553164
  O      -5.970906      2.723125     -5.153979
  H      -5.299711      2.146574     -4.720404
  H      -7.444641      1.577712     -5.262253
  O      -8.003240      0.824651     -5.009695
  H      -8.896692      1.212725     -4.821536
  H      -1.674120      6.168964     -7.010174
  O      -2.040441      5.332499     -6.710949
  H      -1.787524      5.265134     -5.737339
  H     -10.262106      2.900701     -4.898443
  O     -10.309513      2.025291     -4.487670
  H     -10.437593      2.272390     -3.540907
  H      -1.290902      3.682073     -7.027186
  O      -0.804847      2.904464     -6.714054
  H      -1.039796      2.121151     -7.274651
  H      -5.840938      7.447280     -4.166248
  O      -6.386330      6.844041     -4.712976
  H      -6.589283      6.078076     -4.119656
  H      -9.809782      5.809551     -4.514958
  O     -10.328045      4.975381     -4.439836
  H     -11.233234      5.239114     -4.624031
  H      -9.207288      7.983624     -3.990255
  O      -9.056965      7.411032     -4.748380
  H      -8.075169      7.330186     -4.795545
  S      -6.559733      5.050493     -8.933800
  H      -6.441736      3.707145     -8.992444
  H      -7.560606      4.975043     -8.032285
33
Coordinates from ORCA-job neb_23_242_CI_MEP.QMRegion E -2131.020564580362
  H      -5.081842      5.758072     -5.526468
  O      -4.491891      4.979675     -5.570384
  H      -3.710756      5.224093     -6.099788
  H      -5.889205      4.646376     -2.890144
  O      -6.795701      4.539395     -3.253405
  H      -6.655338      3.808913     -3.901726
  H      -5.470468      3.391076     -5.556477
  O      -5.990817      2.687266     -5.127267
  H      -5.310808      2.119228     -4.693510
  H      -7.441897      1.559397     -5.240355
  O      -8.013491      0.809829     -5.002498
  H      -8.904573      1.204477     -4.821390
  H      -1.646479      6.156063     -7.005423
  O      -2.017580      5.324457     -6.699459
  H      -1.761577      5.261608     -5.724677
  H     -10.252842      2.910059     -4.893269
  O     -10.320056      2.030039     -4.495155
  H     -10.454077      2.266576     -3.547135
  H      -1.301217      3.669847     -7.002938
  O      -0.811144      2.891587     -6.697306
  H      -1.054546      2.108687     -7.254728
  H      -5.831346      7.424923     -4.142242
  O      -6.368343      6.826359     -4.702252
  H      -6.575865      6.051112     -4.123266
  H      -9.772604      5.822626     -4.505298
  O     -10.290739      4.983784     -4.477859
  H     -11.188049      5.254418     -4.689417
  H      -9.163628      7.978816     -3.943832
  O      -9.019157      7.408903     -4.704901
  H      -8.036726      7.320510     -4.757598
  S      -7.209135      4.907279     -8.341073
  H      -7.239399      3.569411     -8.523079
  H      -8.243597      4.870399     -7.475391
33
Coordinates from ORCA-job neb_23_242_CI_MEP.QMRegion E -2131.023143990447
  H      -5.077789      5.710496     -5.581437
  O      -4.473943      4.942362     -5.604668
  H      -3.693982      5.194560     -6.131163
  H      -5.877040      4.626158     -2.924478
  O      -6.783365      4.513956     -3.286042
  H      -6.641785      3.790622     -3.941924
  H      -5.494231      3.365990     -5.633084
  O      -5.988498      2.660329     -5.178866
  H      -5.291331      2.116253     -4.743515
  H      -7.432858      1.553112     -5.270800
  O      -8.009247      0.809023     -5.022818
  H      -8.897321      1.207775     -4.846810
  H      -1.612046      6.171000     -6.997609
  O      -1.985817      5.333652     -6.710719
  H      -1.748448      5.260918     -5.732404
  H     -10.229908      2.930170     -4.907553
  O     -10.313277      2.047179     -4.520836
  H     -10.449350      2.271795     -3.571200
  H      -1.278198      3.674164     -7.020722
  O      -0.802679      2.891457     -6.704514
  H      -1.041567      2.109742     -7.266167
  H      -5.797283      7.398220     -4.171667
  O      -6.331306      6.806538     -4.741403
  H      -6.549318      6.024837     -4.174861
  H      -9.729934      5.836445     -4.506130
  O     -10.249407      4.995371     -4.511104
  H     -11.139243      5.271130     -4.748244
  H      -9.080997      7.954705     -3.929471
  O      -8.970616      7.400375     -4.707662
  H      -7.990104      7.302095     -4.792276
  S      -7.938223      4.719992     -7.464674
  H      -8.102300      3.392914     -7.654729
  H      -8.915932      4.764361     -6.532039
