42
Coordinates from ORCA-job neb_154_316_CI_MEP.QMRegion E -2345.034776914944
  H      -4.528197      0.458922      2.151400
  O      -4.923322     -0.442712      2.176999
  H      -4.477290     -0.969267      1.499301
  H      -4.838379      2.518880      1.350013
  O      -4.183543      2.113850      1.961788
  H      -3.351328      2.122022      1.426272
  H      -5.738361      0.824373     -1.569540
  O      -4.828378      1.157385     -1.470470
  H      -4.909577      2.029598     -1.039742
  H      -3.134195      5.054273      1.148356
  O      -3.939739      5.392840      0.697514
  H      -4.341288      5.979655      1.392217
  H      -4.321842      2.747245      3.582540
  O      -4.380941      2.908175      4.549499
  H      -4.421585      2.008414      4.940975
  H      -5.037594      4.199600      0.127043
  O      -5.458254      3.329255     -0.048418
  H      -6.391304      3.444770     -0.328507
  H      -7.629228      3.818706     -2.008218
  O      -7.903672      3.228523     -1.267657
  H      -7.789263      2.321806     -1.652397
  H      -6.328159     -0.153348      1.151729
  O      -6.737916     -0.194268      0.264100
  H      -7.686670     -0.286202      0.396703
  H      -9.057416     -1.880831     -2.242854
  O      -8.515309     -1.614809     -1.473761
  H      -8.590146     -2.325575     -0.792537
  H      -7.931624      0.046623     -1.968565
  O      -7.433790      0.777435     -2.380251
  H      -7.667328      0.761486     -3.335862
  H      -5.638662      3.880266      5.382484
  O      -6.308343      4.232557      6.005438
  H      -6.030028      5.134026      6.190753
  H     -10.009337      3.052829     -4.933647
  O     -10.237008      2.142665     -4.692948
  H     -10.396263      2.238946     -3.733362
  H     -10.511675      4.091023     -2.834635
  O     -10.577571      3.375877     -2.180345
  H      -9.696148      3.381619     -1.759128
  S      -9.868504      1.155579      0.960570
  H      -9.308809      2.304560      0.527305
  H     -10.570533      1.002779     -0.178056
42
Coordinates from ORCA-job neb_154_316_CI_MEP.QMRegion E -2345.033490682375
  H      -4.536609      0.445463      2.130819
  O      -4.927744     -0.457302      2.161885
  H      -4.483711     -0.985640      1.483836
  H      -4.844808      2.509939      1.328792
  O      -4.195980      2.100366      1.942495
  H      -3.359563      2.112223      1.413038
  H      -5.746422      0.819655     -1.596146
  O      -4.834784      1.144223     -1.480754
  H      -4.911889      2.021529     -1.059468
  H      -3.133369      5.051985      1.150720
  O      -3.938805      5.389647      0.698726
  H      -4.343715      5.973828      1.393758
  H      -4.331366      2.728122      3.570339
  O      -4.381927      2.891213      4.536964
  H      -4.424774      1.992009      4.930670
  H      -5.014137      4.198974      0.097985
  O      -5.438143      3.332437     -0.090269
  H      -6.368661      3.455731     -0.373461
  H      -7.634682      3.823336     -2.022083
  O      -7.903842      3.231418     -1.280727
  H      -7.797708      2.325401     -1.669203
  H      -6.330843     -0.176945      1.128048
  O      -6.733253     -0.239683      0.237913
  H      -7.670607     -0.398414      0.372641
  H      -9.063006     -1.869515     -2.262654
  O      -8.523459     -1.619258     -1.485075
  H      -8.603765     -2.342380     -0.819099
  H      -7.938524      0.052253     -1.980274
  O      -7.433382      0.777714     -2.390884
  H      -7.666477      0.762354     -3.347356
  H      -5.652374      3.836528      5.367106
  O      -6.323470      4.190112      5.988418
  H      -6.058536      5.099016      6.154743
  H     -10.009119      3.052976     -4.955403
  O     -10.237740      2.143144     -4.715105
  H     -10.407029      2.241354     -3.757058
  H     -10.514395      4.098964     -2.849769
  O     -10.589420      3.374344     -2.206621
  H      -9.713262      3.372792     -1.776117
  S      -9.393684      1.564940      1.510470
  H      -8.884835      2.572132      0.769206
  H     -10.521992      1.490347      0.778774
42
Coordinates from ORCA-job neb_154_316_CI_MEP.QMRegion E -2345.032605331512
  H      -4.538390      0.446028      2.131019
  O      -4.928375     -0.457314      2.160206
  H      -4.480358     -0.984828      1.484134
  H      -4.842493      2.513249      1.327599
  O      -4.195885      2.101491      1.941265
  H      -3.358959      2.112427      1.412531
  H      -5.745849      0.822428     -1.602239
  O      -4.832935      1.141670     -1.481418
  H      -4.904855      2.021153     -1.063441
  H      -3.127237      5.055633      1.154195
  O      -3.932764      5.391952      0.700841
  H      -4.340900      5.974355      1.395598
  H      -4.330821      2.727155      3.571555
  O      -4.378646      2.889647      4.538167
  H      -4.421379      1.990339      4.931715
  H      -4.993332      4.203484      0.090683
  O      -5.419783      3.339526     -0.106512
  H      -6.348237      3.469217     -0.391473
  H      -7.636137      3.828014     -2.022024
  O      -7.899348      3.234561     -1.279828
  H      -7.793641      2.329509     -1.670191
  H      -6.334195     -0.187711      1.129288
  O      -6.738523     -0.248776      0.239333
  H      -7.665256     -0.459413      0.372801
  H      -9.062269     -1.864291     -2.264343
  O      -8.521683     -1.620267     -1.485217
  H      -8.606191     -2.347043     -0.824106
  H      -7.934091      0.058425     -1.977907
  O      -7.426284      0.780057     -2.391204
  H      -7.661141      0.763619     -3.347301
  H      -5.653627      3.824566      5.364742
  O      -6.324919      4.180152      5.984930
  H      -6.062748      5.091016      6.144189
  H     -10.003459      3.055862     -4.956357
  O     -10.234513      2.146058     -4.718348
  H     -10.407992      2.243102     -3.760783
  H     -10.509483      4.098896     -2.849656
  O     -10.594134      3.372115     -2.210275
  H      -9.722627      3.363138     -1.771528
  S      -9.080808      1.757965      1.753081
  H      -8.656141      2.660711      0.844293
  H     -10.378215      1.910064      1.422585
42
Coordinates from ORCA-job neb_154_316_CI_MEP.QMRegion E -2345.032527396317
  H      -4.550188      0.440910      2.134832
  O      -4.938102     -0.463879      2.161126
  H      -4.482297     -0.990270      1.489485
  H      -4.846042      2.508161      1.333404
  O      -4.200399      2.092435      1.945425
  H      -3.363175      2.105334      1.417993
  H      -5.748888      0.820762     -1.602069
  O      -4.835975      1.138449     -1.477283
  H      -4.907233      2.017099     -1.056594
  H      -3.127857      5.051481      1.161021
  O      -3.932740      5.387826      0.705996
  H      -4.342405      5.968822      1.401240
  H      -4.338213      2.720497      3.580169
  O      -4.379498      2.884619      4.546391
  H      -4.421460      1.985128      4.940151
  H      -4.988435      4.200216      0.098751
  O      -5.416983      3.338119     -0.104602
  H      -6.347113      3.469193     -0.381111
  H      -7.641077      3.822086     -2.012429
  O      -7.902635      3.224970     -1.273080
  H      -7.795275      2.322530     -1.669036
  H      -6.347138     -0.205779      1.142063
  O      -6.758757     -0.251494      0.253497
  H      -7.668294     -0.528072      0.383248
  H      -9.064513     -1.863481     -2.259858
  O      -8.522045     -1.624847     -1.480531
  H      -8.610609     -2.354248     -0.822666
  H      -7.933150      0.057130     -1.973619
  O      -7.422816      0.775999     -2.388055
  H      -7.658251      0.760816     -3.343927
  H      -5.664865      3.805480      5.368760
  O      -6.334769      4.167921      5.986929
  H      -6.064434      5.076646      6.144658
  H     -10.001230      3.056008     -4.948729
  O     -10.233812      2.145733     -4.713994
  H     -10.412951      2.241025     -3.757171
  H     -10.504472      4.095843     -2.840203
  O     -10.605753      3.365656     -2.207395
  H      -9.742793      3.345042     -1.753637
  S      -8.855409      1.851128      1.896041
  H      -8.544652      2.631206      0.841144
  H     -10.083388      2.389293      2.023658
42
Coordinates from ORCA-job neb_154_316_CI_MEP.QMRegion E -2345.032532739502
  H      -4.553349      0.449498      2.131702
  O      -4.938011     -0.457429      2.154819
  H      -4.473693     -0.980281      1.486412
  H      -4.857351      2.509182      1.340405
  O      -4.200429      2.098672      1.941967
  H      -3.368165      2.116663      1.405690
  H      -5.745358      0.824868     -1.616270
  O      -4.832543      1.138772     -1.481401
  H      -4.903128      2.021601     -1.068278
  H      -3.125156      5.057059      1.157407
  O      -3.930015      5.393712      0.702995
  H      -4.339544      5.975283      1.397425
  H      -4.339575      2.727585      3.571706
  O      -4.376347      2.888487      4.539036
  H      -4.419061      1.988231      4.930350
  H      -4.981664      4.207096      0.083555
  O      -5.405512      3.346527     -0.132739
  H      -6.337584      3.479849     -0.398240
  H      -7.648989      3.838069     -2.021607
  O      -7.907290      3.231663     -1.288671
  H      -7.788117      2.334965     -1.691671
  H      -6.348772     -0.210524      1.137762
  O      -6.769034     -0.254441      0.251979
  H      -7.658565     -0.591187      0.377758
  H      -9.060878     -1.862417     -2.271133
  O      -8.521507     -1.628157     -1.487475
  H      -8.612838     -2.362288     -0.836045
  H      -7.924256      0.058576     -1.980744
  O      -7.412457      0.774677     -2.397192
  H      -7.651748      0.759916     -3.352450
  H      -5.654136      3.802461      5.356913
  O      -6.330536      4.161813      5.971266
  H      -6.071798      5.075178      6.121443
  H      -9.995837      3.058086     -4.962678
  O     -10.231120      2.148565     -4.727785
  H     -10.412761      2.245401     -3.771234
  H     -10.515390      4.094329     -2.857554
  O     -10.609856      3.363855     -2.224097
  H      -9.745291      3.350700     -1.772903
  S      -8.633046      1.964087      2.022355
  H      -8.495374      2.586528      0.836165
  H      -9.510559      2.880874      2.476799
42
Coordinates from ORCA-job neb_154_316_CI_MEP.QMRegion E -2345.033339520515
  H      -4.559243      0.451423      2.130526
  O      -4.940712     -0.457183      2.153234
  H      -4.473600     -0.977988      1.485224
  H      -4.861408      2.507678      1.344812
  O      -4.200304      2.098281      1.942171
  H      -3.369827      2.117710      1.403130
  H      -5.746004      0.828921     -1.620900
  O      -4.832479      1.138633     -1.481136
  H      -4.901048      2.023022     -1.070060
  H      -3.120278      5.058153      1.159210
  O      -3.924921      5.395037      0.704299
  H      -4.335413      5.975589      1.398592
  H      -4.339007      2.725517      3.570954
  O      -4.373855      2.886025      4.538926
  H      -4.414014      1.985300      4.929657
  H      -4.971640      4.210177      0.078717
  O      -5.394914      3.351394     -0.144679
  H      -6.331301      3.484572     -0.392284
  H      -7.651662      3.839085     -2.013399
  O      -7.912006      3.237265     -1.277829
  H      -7.792516      2.339876     -1.677596
  H      -6.356985     -0.214176      1.140720
  O      -6.780784     -0.265277      0.256535
  H      -7.655504     -0.638367      0.381938
  H      -9.058008     -1.858657     -2.274453
  O      -8.520856     -1.627913     -1.487928
  H      -8.612857     -2.366172     -0.841446
  H      -7.918772      0.063424     -1.978770
  O      -7.409179      0.780757     -2.394947
  H      -7.648294      0.766377     -3.350276
  H      -5.648371      3.788386      5.354745
  O      -6.331738      4.149758      5.961568
  H      -6.075350      5.064305      6.109314
  H      -9.987402      3.062043     -4.964213
  O     -10.226742      2.153230     -4.730577
  H     -10.410524      2.250369     -3.774383
  H     -10.510827      4.095145     -2.857064
  O     -10.613530      3.362554     -2.227206
  H      -9.755228      3.348270     -1.764469
  S      -8.313865      2.151090      2.184679
  H      -8.417947      2.632126      0.930096
  H      -8.814152      3.270811      2.748996
42
Coordinates from ORCA-job neb_154_316_CI_MEP.QMRegion E -2345.034820057912
  H      -4.579051      0.448932      2.123442
  O      -4.958806     -0.460717      2.148886
  H      -4.493037     -0.980628      1.479078
  H      -4.877931      2.498909      1.355856
  O      -4.203399      2.090500      1.936642
  H      -3.378990      2.114092      1.388242
  H      -5.761549      0.827072     -1.636487
  O      -4.846537      1.128059     -1.484768
  H      -4.913200      2.017193     -1.082314
  H      -3.125648      5.056308      1.159095
  O      -3.929600      5.393416      0.703435
  H      -4.341060      5.973665      1.396538
  H      -4.351563      2.714350      3.563551
  O      -4.381158      2.876709      4.532106
  H      -4.418690      1.975712      4.923257
  H      -4.963251      4.208799      0.061244
  O      -5.385214      3.355688     -0.182530
  H      -6.327373      3.492560     -0.401877
  H      -7.669625      3.835437     -2.000696
  O      -7.931785      3.247952     -1.255338
  H      -7.817531      2.345137     -1.641580
  H      -6.384546     -0.230268      1.141907
  O      -6.811075     -0.288245      0.259676
  H      -7.667156     -0.703479      0.381773
  H      -9.063027     -1.859735     -2.286277
  O      -8.529523     -1.634279     -1.495295
  H      -8.625973     -2.375942     -0.854685
  H      -7.931147      0.066331     -1.974638
  O      -7.424715      0.786499     -2.389066
  H      -7.661430      0.773619     -3.344884
  H      -5.654096      3.753718      5.345805
  O      -6.357394      4.114841      5.931970
  H      -6.113378      5.033807      6.074330
  H      -9.992244      3.059148     -4.969467
  O     -10.232195      2.150067     -4.737591
  H     -10.421751      2.246447     -3.782392
  H     -10.515644      4.085837     -2.856084
  O     -10.634574      3.350368     -2.232519
  H      -9.788610      3.333624     -1.747964
  S      -7.741623      2.461428      2.444687
  H      -8.150140      2.871771      1.227737
  H      -7.815945      3.695040      2.985001
