33
Coordinates from ORCA-job neb_5_69_CI_MEP.QMRegion E -2131.023310064043
  H      -4.024602      1.191161      6.988553
  O      -3.908927      1.780415      7.770492
  H      -4.809451      2.153840      7.950081
  H      -0.550576      2.066474      7.671784
  O      -1.166845      1.997274      6.922839
  H      -2.032265      1.821583      7.309485
  H      -2.536324      3.005412     10.432572
  O      -2.384445      2.079695     10.167766
  H      -2.906176      1.957963      9.351890
  H      -6.440618      3.331581      7.302718
  O      -6.291836      2.900068      8.179930
  H      -6.836974      2.095690      8.193369
  H      -2.123267      5.429612     10.693625
  O      -2.856426      4.795023     10.888538
  H      -3.079762      4.974446     11.805768
  H      -4.295951      5.175253      9.725895
  O      -4.907573      5.314475      8.981425
  H      -5.532578      4.575143      9.016369
  H      -6.782136     -0.394965      7.631272
  O      -7.025288      0.145548      8.410534
  H      -7.879301     -0.197095      8.687573
  H      -5.205083     -1.949129      6.806758
  O      -5.941553     -1.459159      6.394142
  H      -5.966578     -1.833040      5.481890
  H      -3.610348     -3.737961      7.635264
  O      -3.602707     -2.940444      7.099700
  H      -3.387128     -3.246741      6.188697
  H      -2.402552     -1.526086      7.556116
  O      -2.084553     -0.698505      7.944744
  H      -2.509906     -0.694379      8.814386
  S      -4.106115     -0.789759     10.722891
  H      -3.541187      0.430265     10.920967
  H      -5.075895     -0.279374      9.932576
33
Coordinates from ORCA-job neb_5_69_CI_MEP.QMRegion E -2131.018355797890
  H      -4.014064      1.180124      6.961355
  O      -3.904223      1.769429      7.745361
  H      -4.814341      2.130374      7.915474
  H      -0.552123      2.051491      7.665598
  O      -1.163244      1.981734      6.912752
  H      -2.035985      1.823685      7.291069
  H      -2.518730      3.037695     10.319248
  O      -2.377310      2.095977     10.104789
  H      -2.919271      1.923716      9.309548
  H      -6.438891      3.305835      7.265070
  O      -6.298446      2.846517      8.129510
  H      -6.849783      2.043408      8.109257
  H      -2.120858      5.417592     10.669370
  O      -2.843964      4.763435     10.834916
  H      -3.040938      4.859997     11.770506
  H      -4.318254      5.146377      9.701521
  O      -4.929077      5.280545      8.956214
  H      -5.537872      4.526964      8.975169
  H      -6.841512     -0.396546      7.526926
  O      -7.182924      0.165241      8.251927
  H      -8.081154     -0.143813      8.393312
  H      -5.209390     -1.964467      6.790500
  O      -5.935408     -1.472306      6.365819
  H      -5.946430     -1.844074      5.450649
  H      -3.599814     -3.771536      7.605930
  O      -3.573318     -2.958302      7.095325
  H      -3.365089     -3.247168      6.175713
  H      -2.424954     -1.556674      7.615935
  O      -2.087227     -0.730498      7.995544
  H      -2.439194     -0.720012      8.890842
  S      -4.054016     -0.251231     11.714667
  H      -3.290049      0.826767     11.383312
  H      -5.113769      0.258447     11.053493
33
Coordinates from ORCA-job neb_5_69_CI_MEP.QMRegion E -2131.016640117406
  H      -4.022276      1.184471      6.967596
  O      -3.911023      1.772954      7.751417
  H      -4.820687      2.136074      7.922607
  H      -0.553260      2.057558      7.666480
  O      -1.165907      1.982215      6.915158
  H      -2.039281      1.836325      7.296942
  H      -2.510114      3.045659     10.307886
  O      -2.372616      2.100923     10.101412
  H      -2.923801      1.921421      9.314277
  H      -6.444688      3.308211      7.272111
  O      -6.306489      2.847865      8.136012
  H      -6.858847      2.044920      8.112350
  H      -2.125787      5.420455     10.686728
  O      -2.843567      4.759237     10.845988
  H      -3.024056      4.822889     11.787770
  H      -4.322742      5.146099      9.716421
  O      -4.928300      5.276242      8.966403
  H      -5.542642      4.527456      8.990532
  H      -6.867168     -0.386137      7.515615
  O      -7.227783      0.179096      8.227784
  H      -8.138230     -0.109965      8.326687
  H      -5.208944     -1.956414      6.802097
  O      -5.934623     -1.469698      6.371703
  H      -5.942407     -1.846454      5.458724
  H      -3.590056     -3.762847      7.613872
  O      -3.559363     -2.948093      7.105765
  H      -3.356366     -3.236037      6.184774
  H      -2.425506     -1.550346      7.648425
  O      -2.083244     -0.723663      8.023996
  H      -2.396662     -0.723359      8.932061
  S      -4.022501      0.109935     12.194565
  H      -3.202760      0.993253     11.563617
  H      -5.091596      0.575037     11.516017
33
Coordinates from ORCA-job neb_5_69_CI_MEP.QMRegion E -2131.016566805238
  H      -4.023860      1.182368      6.980499
  O      -3.911742      1.770255      7.763805
  H      -4.821419      2.137138      7.934827
  H      -0.558959      2.048532      7.683145
  O      -1.175400      1.975218      6.934134
  H      -2.047748      1.842852      7.323922
  H      -2.530541      2.987361     10.345984
  O      -2.385840      2.050651     10.109065
  H      -2.958403      1.886727      9.332797
  H      -6.433299      3.300529      7.277228
  O      -6.296524      2.838753      8.140279
  H      -6.852505      2.037082      8.113505
  H      -2.109998      5.392977     10.685173
  O      -2.825827      4.731371     10.851682
  H      -3.009758      4.810337     11.791732
  H      -4.319563      5.142143      9.722682
  O      -4.926997      5.272484      8.974343
  H      -5.537551      4.520471      8.997185
  H      -6.910263     -0.359760      7.494016
  O      -7.294124      0.216727      8.183849
  H      -8.215173     -0.049293      8.239009
  H      -5.222247     -1.950362      6.814474
  O      -5.942749     -1.463675      6.376577
  H      -5.941837     -1.841670      5.463876
  H      -3.602824     -3.772729      7.622198
  O      -3.560522     -2.952477      7.123533
  H      -3.349330     -3.231474      6.201852
  H      -2.455444     -1.563513      7.717261
  O      -2.089349     -0.736763      8.070191
  H      -2.354896     -0.722132      8.993010
  S      -3.955003      0.593185     12.660153
  H      -3.164829      1.132764     11.688174
  H      -5.070483      0.867524     11.952289
33
Coordinates from ORCA-job neb_5_69_CI_MEP.QMRegion E -2131.016582363694
  H      -4.026681      1.187808      6.977488
  O      -3.914208      1.774061      7.761842
  H      -4.823788      2.140360      7.935178
  H      -0.556667      2.056375      7.679953
  O      -1.172318      1.979579      6.930580
  H      -2.045728      1.855540      7.320493
  H      -2.516105      2.975819     10.330138
  O      -2.380808      2.034535     10.102522
  H      -2.946735      1.874585      9.320840
  H      -6.438244      3.303948      7.279275
  O      -6.303576      2.837897      8.140309
  H      -6.860524      2.037245      8.106878
  H      -2.114711      5.386396     10.699857
  O      -2.819390      4.709933     10.849623
  H      -2.986976      4.734427     11.796169
  H      -4.316234      5.131838      9.733256
  O      -4.922675      5.265961      8.984556
  H      -5.538049      4.518207      9.008718
  H      -6.923161     -0.360179      7.476938
  O      -7.324755      0.216876      8.156046
  H      -8.254314     -0.024472      8.160607
  H      -5.214443     -1.943772      6.818604
  O      -5.937581     -1.463821      6.378257
  H      -5.935157     -1.844396      5.466475
  H      -3.583260     -3.762481      7.623056
  O      -3.542698     -2.941166      7.126168
  H      -3.340440     -3.219970      6.202388
  H      -2.440952     -1.554773      7.723510
  O      -2.080156     -0.727829      8.082033
  H      -2.316381     -0.734658      9.012366
  S      -3.791790      1.146638     12.997920
  H      -3.097673      1.292178     11.835190
  H      -4.967561      1.231125     12.342294
33
Coordinates from ORCA-job neb_5_69_CI_MEP.QMRegion E -2131.017417253905
  H      -4.028309      1.196455      6.983588
  O      -3.914959      1.779822      7.769047
  H      -4.824461      2.145260      7.942653
  H      -0.558439      2.072576      7.680299
  O      -1.174481      1.984969      6.932130
  H      -2.047797      1.872542      7.326248
  H      -2.498824      2.993148     10.308574
  O      -2.366417      2.040107     10.123920
  H      -2.933453      1.849547      9.351886
  H      -6.450432      3.300998      7.284748
  O      -6.320012      2.828459      8.142226
  H      -6.876331      2.027614      8.098579
  H      -2.121472      5.393235     10.714633
  O      -2.820657      4.707897     10.842806
  H      -2.956071      4.654242     11.794764
  H      -4.322734      5.115000      9.750360
  O      -4.927499      5.248077      8.999535
  H      -5.544791      4.502413      9.024710
  H      -6.941921     -0.361388      7.452786
  O      -7.372063      0.210723      8.118638
  H      -8.306754      0.000880      8.048591
  H      -5.204490     -1.934909      6.828143
  O      -5.929071     -1.460834      6.384120
  H      -5.924545     -1.843046      5.473199
  H      -3.558051     -3.751588      7.625208
  O      -3.521186     -2.927268      7.132909
  H      -3.326608     -3.202834      6.206735
  H      -2.421138     -1.543243      7.744635
  O      -2.069428     -0.717660      8.114988
  H      -2.273210     -0.755429      9.052117
  S      -3.536922      1.749969     13.244618
  H      -3.031725      1.461386     12.014573
  H      -4.803941      1.676693     12.786696
33
Coordinates from ORCA-job neb_5_69_CI_MEP.QMRegion E -2131.019486145895
  H      -4.031062      1.187679      6.988579
  O      -3.916713      1.769147      7.774936
  H      -4.828627      2.128437      7.946849
  H      -0.572180      2.068074      7.679428
  O      -1.194002      1.978966      6.936852
  H      -2.065821      1.871812      7.337697
  H      -2.499878      2.949885     10.315520
  O      -2.375274      1.988119     10.172318
  H      -2.944921      1.777825      9.407635
  H      -6.459944      3.272577      7.277661
  O      -6.336659      2.787817      8.128431
  H      -6.894741      1.988458      8.066389
  H      -2.126388      5.359670     10.721436
  O      -2.816699      4.665221     10.831763
  H      -2.927715      4.549259     11.785995
  H      -4.333316      5.064237      9.761110
  O      -4.941703      5.203449      9.013777
  H      -5.553699      4.453370      9.029366
  H      -6.993159     -0.365969      7.385994
  O      -7.471216      0.208437      8.016423
  H      -8.400362      0.045666      7.835224
  H      -5.206967     -1.941825      6.826756
  O      -5.929587     -1.471484      6.376581
  H      -5.915892     -1.853221      5.464921
  H      -3.540553     -3.763495      7.609794
  O      -3.502479     -2.931252      7.131297
  H      -3.309241     -3.195141      6.201349
  H      -2.423976     -1.554918      7.792260
  O      -2.063790     -0.731639      8.160394
  H      -2.210226     -0.789522      9.107256
  S      -3.174683      2.534067     13.483898
  H      -2.961342      1.897583     12.303801
  H      -4.509216      2.360649     13.400089
