27
Coordinates from ORCA-job neb_136_239_CI_MEP.QMRegion E -1988.352343638109
  H      -4.974608      5.786346     -5.601696
  O      -4.419452      4.984913     -5.644431
  H      -3.623312      5.189528     -6.170125
  H      -5.853309      4.641598     -2.931470
  O      -6.752825      4.534200     -3.310230
  H      -6.601301      3.804431     -3.958009
  H      -5.391931      3.406791     -5.616524
  O      -5.928207      2.708562     -5.199598
  H      -5.263297      2.131289     -4.756663
  H      -7.424169      1.568137     -5.309112
  O      -7.978518      0.822323     -5.029993
  H      -8.872518      1.210612     -4.845960
  H     -10.279457      2.867446     -4.939143
  O     -10.292981      2.004802     -4.501836
  H     -10.414748      2.272787     -3.560289
  H      -5.786374      7.418757     -4.163794
  O      -6.311610      6.823333     -4.740178
  H      -6.511638      6.027273     -4.182825
  H      -9.823774      5.794082     -4.521911
  O     -10.357569      4.974240     -4.441349
  H     -11.264870      5.256863     -4.581210
  H      -9.124122      7.967245     -3.966723
  O      -8.983524      7.389240     -4.723071
  H      -8.003953      7.269036     -4.752826
  S      -7.475084      8.975334     -7.550104
  H      -6.582196      8.222759     -6.878750
  H      -8.466295      8.588436     -6.719250
27
Coordinates from ORCA-job neb_136_239_CI_MEP.QMRegion E -1988.351786158171
  H      -4.945829      5.796726     -5.544044
  O      -4.407319      4.985562     -5.622590
  H      -3.609926      5.185375     -6.148084
  H      -5.845925      4.633290     -2.904979
  O      -6.747829      4.537072     -3.281271
  H      -6.600869      3.816032     -3.939721
  H      -5.383292      3.426707     -5.588349
  O      -5.925198      2.726740     -5.181019
  H      -5.265375      2.141096     -4.741931
  H      -7.431111      1.586380     -5.301989
  O      -7.979914      0.835717     -5.025537
  H      -8.875337      1.219356     -4.833287
  H     -10.285126      2.861303     -4.934303
  O     -10.296038      2.001588     -4.490275
  H     -10.417272      2.278469     -3.550726
  H      -5.772542      7.429102     -4.139190
  O      -6.292367      6.815726     -4.702388
  H      -6.489569      6.036261     -4.121820
  H      -9.826598      5.750592     -4.597556
  O     -10.381505      4.951428     -4.473561
  H     -11.283308      5.255364     -4.604005
  H      -9.188918      8.035139     -4.284454
  O      -8.952470      7.313767     -4.875039
  H      -7.970505      7.232417     -4.789620
  S      -7.675166      8.003411     -8.124665
  H      -6.706921      7.352615     -7.449734
  H      -8.518000      7.894968     -7.070241
27
Coordinates from ORCA-job neb_136_239_CI_MEP.QMRegion E -1988.351852646530
  H      -4.967906      5.811755     -5.564900
  O      -4.418327      5.006482     -5.635041
  H      -3.622161      5.215512     -6.158436
  H      -5.853978      4.654311     -2.901308
  O      -6.753080      4.554778     -3.283301
  H      -6.603522      3.827189     -3.934645
  H      -5.388879      3.433359     -5.582575
  O      -5.928623      2.736486     -5.167728
  H      -5.265999      2.152849     -4.730144
  H      -7.424792      1.589608     -5.291562
  O      -7.975790      0.840955     -5.013868
  H      -8.873497      1.224334     -4.835027
  H     -10.301193      2.866932     -4.929515
  O     -10.299886      2.005471     -4.488665
  H     -10.417925      2.276134     -3.547208
  H      -5.780738      7.437402     -4.160525
  O      -6.291817      6.817757     -4.723846
  H      -6.498057      6.043675     -4.137793
  H      -9.826785      5.750847     -4.639039
  O     -10.378779      4.959211     -4.469704
  H     -11.282411      5.250249     -4.615286
  H      -9.193483      8.078374     -4.603899
  O      -8.923760      7.285276     -5.075688
  H      -7.946041      7.227921     -4.930769
  S      -7.880152      6.965081     -8.418515
  H      -6.811048      6.480888     -7.755657
  H      -8.514094      7.256998     -7.260658
27
Coordinates from ORCA-job neb_136_239_CI_MEP.QMRegion E -1988.351752687928
  H      -4.966321      5.822006     -5.557247
  O      -4.420380      5.014202     -5.637354
  H      -3.622411      5.223076     -6.157849
  H      -5.856756      4.666329     -2.902750
  O      -6.757147      4.566077     -3.281351
  H      -6.606640      3.839968     -3.934053
  H      -5.386284      3.443644     -5.577393
  O      -5.927874      2.747222     -5.164154
  H      -5.267879      2.161286     -4.726322
  H      -7.429509      1.598629     -5.292846
  O      -7.978073      0.848710     -5.014177
  H      -8.875750      1.231752     -4.832710
  H     -10.304341      2.870853     -4.933229
  O     -10.302861      2.011221     -4.488365
  H     -10.420046      2.285569     -3.547744
  H      -5.778618      7.449753     -4.160371
  O      -6.280063      6.826454     -4.728469
  H      -6.499836      6.060028     -4.138163
  H      -9.821146      5.734606     -4.710149
  O     -10.379636      4.963341     -4.483705
  H     -11.281719      5.255434     -4.635937
  H      -9.187585      8.080576     -4.969559
  O      -8.882728      7.222541     -5.276245
  H      -7.917926      7.202554     -5.055976
  S      -8.051005      6.007425     -8.477284
  H      -6.872468      5.700762     -7.899557
  H      -8.480566      6.664453     -7.377591
27
Coordinates from ORCA-job neb_136_239_CI_MEP.QMRegion E -1988.351652722315
  H      -4.962757      5.799846     -5.560056
  O      -4.418785      4.990633     -5.644259
  H      -3.619827      5.200187     -6.162621
  H      -5.859646      4.644345     -2.913910
  O      -6.759889      4.546417     -3.292410
  H      -6.612583      3.820278     -3.946002
  H      -5.380717      3.426416     -5.578638
  O      -5.927530      2.728661     -5.174345
  H      -5.271141      2.140027     -4.734410
  H      -7.436470      1.578243     -5.311712
  O      -7.979948      0.828043     -5.024626
  H      -8.879362      1.207743     -4.846260
  H     -10.305229      2.846356     -4.952028
  O     -10.306511      1.988751     -4.502780
  H     -10.423659      2.265608     -3.564210
  H      -5.777352      7.433369     -4.168700
  O      -6.269211      6.804386     -4.737943
  H      -6.500185      6.043592     -4.144650
  H      -9.815298      5.686494     -4.779642
  O     -10.383008      4.936786     -4.511028
  H     -11.281988      5.236756     -4.666068
  H      -9.168807      8.017529     -5.281979
  O      -8.843487      7.127248     -5.440512
  H      -7.895283      7.145985     -5.158370
  S      -8.150430      5.337856     -8.406078
  H      -6.895824      5.152726     -7.947988
  H      -8.434333      6.231049     -7.431538
27
Coordinates from ORCA-job neb_136_239_CI_MEP.QMRegion E -1988.351703708279
  H      -4.962785      5.777187     -5.568303
  O      -4.416266      4.969171     -5.651808
  H      -3.619438      5.181834     -6.171738
  H      -5.859139      4.634741     -2.923524
  O      -6.758986      4.534997     -3.302056
  H      -6.612728      3.806123     -3.953025
  H      -5.374194      3.411316     -5.579107
  O      -5.924903      2.712917     -5.181422
  H      -5.270407      2.124790     -4.737424
  H      -7.441148      1.564229     -5.324000
  O      -7.978218      0.813578     -5.026734
  H      -8.879804      1.189082     -4.852118
  H     -10.297832      2.825356     -4.963013
  O     -10.306140      1.971055     -4.507208
  H     -10.422756      2.253005     -3.571003
  H      -5.777546      7.424101     -4.183411
  O      -6.256040      6.786989     -4.754088
  H      -6.501124      6.033995     -4.156503
  H      -9.791576      5.637620     -4.867955
  O     -10.369049      4.921051     -4.538766
  H     -11.264878      5.229010     -4.695996
  H      -9.112599      7.885444     -5.690127
  O      -8.775548      6.985720     -5.667875
  H      -7.853884      7.063929     -5.318389
  S      -8.198740      4.606551     -8.209542
  H      -6.894626      4.495194     -7.884048
  H      -8.369377      5.686199     -7.412832
27
Coordinates from ORCA-job neb_136_239_CI_MEP.QMRegion E -1988.351851568506
  H      -4.964853      5.787199     -5.554745
  O      -4.415142      4.980838     -5.641123
  H      -3.620516      5.193501     -6.163711
  H      -5.870793      4.655606     -2.927587
  O      -6.773063      4.554680     -3.300157
  H      -6.629587      3.826519     -3.952030
  H      -5.353111      3.435858     -5.544444
  O      -5.911970      2.729368     -5.171902
  H      -5.266873      2.132608     -4.726551
  H      -7.460384      1.578118     -5.338426
  O      -7.980032      0.822089     -5.026041
  H      -8.887154      1.189019     -4.862189
  H     -10.281871      2.830351     -4.987938
  O     -10.317373      1.978206     -4.528486
  H     -10.436083      2.261516     -3.594151
  H      -5.794496      7.447188     -4.197769
  O      -6.258079      6.800879     -4.769488
  H      -6.525571      6.062940     -4.164382
  H      -9.748413      5.586531     -5.022547
  O     -10.344575      4.933759     -4.607600
  H     -11.230728      5.265442     -4.771653
  H      -8.985631      7.618260     -6.288008
  O      -8.653676      6.762252     -6.004854
  H      -7.790126      6.950373     -5.566263
  S      -8.249288      3.709108     -7.804960
  H      -6.916325      3.583848     -7.643656
  H      -8.259401      4.961920     -7.300608
