39
Coordinates from ORCA-job neb_130_341_CI_MEP.QMRegion E -2273.694430320796
  H      -2.257039     -8.017413      0.448860
  O      -1.884329     -7.534049      1.218248
  H      -2.645499     -7.169332      1.681227
  H       0.063893     -7.083247     -1.128533
  O       0.574761     -7.502862     -0.395525
  H      -0.065417     -7.627701      0.311923
  H       5.829084     -7.944069      0.164958
  O       5.521019     -8.660236     -0.435085
  H       4.705948     -8.313668     -0.847984
  H      -6.008238     -7.931019     -0.555743
  O      -5.159288     -8.001643     -0.050224
  H      -5.105883     -7.216697      0.524356
  H       2.228855     -8.132320     -0.958378
  O       2.945673     -8.115307     -1.619816
  H       2.734010     -8.826483     -2.243888
  H      -0.954472     -7.089854     -3.224873
  O      -0.502944     -6.442981     -2.646716
  H       0.404309     -6.331214     -3.030120
  H      -3.010687     -9.744260     -0.765489
  O      -2.849128     -8.833669     -1.063910
  H      -3.737972     -8.417811     -0.907768
  H      -0.193698     -8.076554      2.675172
  O       0.635887     -7.783629      3.066779
  H       1.353451     -8.123770      2.497699
  H      -8.174230     -8.350496     -0.990915
  O      -7.435165     -8.001978     -1.497922
  H      -7.673237     -7.044974     -1.624429
  H      -2.363717     -8.757953     -2.849001
  O      -2.096591     -8.427619     -3.729727
  H      -1.474895     -9.049706     -4.127444
  H       2.411245    -10.808791     -3.955054
  O       2.169993     -9.934467     -3.640443
  H       1.348480     -9.686610     -4.123636
  H       3.591877     -9.007167      1.367066
  O       2.898087     -8.356114      1.501705
  H       3.385222     -7.536044      1.726548
  S      -4.399235    -11.239365      0.624065
  H      -5.236206    -11.652916     -0.347689
  H      -4.976419    -10.013150      0.684759
39
Coordinates from ORCA-job neb_130_341_CI_MEP.QMRegion E -2273.688823486676
  H      -2.376333     -7.876269      0.410472
  O      -1.985641     -7.480340      1.221542
  H      -2.730764     -7.086309      1.688344
  H      -0.005206     -7.037193     -1.105816
  O       0.493171     -7.482220     -0.378037
  H      -0.146329     -7.593762      0.332009
  H       5.777817     -7.916938      0.147319
  O       5.462019     -8.622054     -0.460931
  H       4.650096     -8.262929     -0.868356
  H      -6.109911     -7.992131     -0.500593
  O      -5.263384     -8.061783      0.005056
  H      -5.193940     -7.254658      0.542759
  H       2.120635     -8.078386     -0.940874
  O       2.857468     -8.086831     -1.582164
  H       2.632627     -8.784378     -2.218291
  H      -0.969680     -7.047161     -3.226243
  O      -0.511641     -6.409711     -2.641630
  H       0.399020     -6.308421     -3.018422
  H      -2.863126     -9.562637     -0.838080
  O      -2.971785     -8.636783     -1.108983
  H      -3.911604     -8.399384     -0.850927
  H      -0.303473     -8.029691      2.675179
  O       0.532839     -7.784397      3.084289
  H       1.241422     -8.117990      2.498858
  H      -8.293836     -8.339248     -0.995670
  O      -7.533516     -8.010815     -1.484969
  H      -7.735310     -7.046060     -1.607542
  H      -2.477019     -8.618620     -2.851629
  O      -2.118955     -8.350677     -3.721862
  H      -1.549467     -9.044451     -4.079856
  H       2.341113    -10.760122     -3.898634
  O       2.118681     -9.872514     -3.609926
  H       1.306192     -9.621318     -4.111852
  H       3.452760     -8.989955      1.314947
  O       2.787495     -8.327001      1.513784
  H       3.309210     -7.528148      1.735234
  S      -2.160788    -11.616679      0.193432
  H      -3.035464    -12.278770     -0.589815
  H      -3.126200    -11.202094      1.040912
39
Coordinates from ORCA-job neb_130_341_CI_MEP.QMRegion E -2273.683637004935
  H      -2.315292     -7.938598      0.458184
  O      -1.921694     -7.509967      1.247547
  H      -2.665017     -7.120454      1.720715
  H       0.030485     -7.050417     -1.105710
  O       0.532206     -7.489595     -0.377811
  H      -0.104127     -7.594749      0.336347
  H       5.809018     -7.926617      0.156196
  O       5.493545     -8.635494     -0.448544
  H       4.683172     -8.276714     -0.860166
  H      -6.017291     -7.964585     -0.525808
  O      -5.172539     -8.030541     -0.014152
  H      -5.115576     -7.231059      0.538156
  H       2.195440     -8.094480     -0.932687
  O       2.910179     -8.084702     -1.596796
  H       2.684134     -8.788636     -2.224762
  H      -0.954013     -7.046129     -3.223658
  O      -0.501336     -6.409923     -2.634848
  H       0.410260     -6.304968     -3.011006
  H      -2.928031     -9.643702     -0.864973
  O      -2.926303     -8.707103     -1.082946
  H      -3.853910     -8.396555     -0.828447
  H      -0.216692     -8.075532      2.685101
  O       0.615890     -7.786270      3.072217
  H       1.327928     -8.122914      2.493250
  H      -8.172017     -8.362768     -0.999471
  O      -7.431663     -8.000720     -1.494767
  H      -7.675002     -7.044667     -1.612631
  H      -2.423620     -8.646455     -2.849364
  O      -2.096639     -8.361020     -3.725889
  H      -1.501345     -9.024984     -4.090995
  H       2.386214    -10.756551     -3.928112
  O       2.143389     -9.880875     -3.619449
  H       1.327064     -9.634902     -4.115283
  H       3.548430     -8.990755      1.325044
  O       2.862525     -8.338654      1.491433
  H       3.360365     -7.526759      1.721629
  S      -1.880026    -12.008823      0.383374
  H      -2.625876    -12.111238     -0.735055
  H      -2.659858    -11.042124      0.910438
39
Coordinates from ORCA-job neb_130_341_CI_MEP.QMRegion E -2273.681564518339
  H      -2.297671     -7.971272      0.497234
  O      -1.893147     -7.521728      1.268205
  H      -2.629930     -7.131802      1.750693
  H       0.047119     -7.054564     -1.090194
  O       0.544899     -7.496656     -0.361206
  H      -0.088650     -7.579858      0.359072
  H       5.831615     -7.931520      0.167587
  O       5.514003     -8.640987     -0.436194
  H       4.703770     -8.279684     -0.845442
  H      -5.983628     -7.947420     -0.517689
  O      -5.136994     -8.005484     -0.007694
  H      -5.088011     -7.210408      0.551959
  H       2.229999     -8.093461     -0.911195
  O       2.932358     -8.076454     -1.587257
  H       2.705853     -8.785201     -2.209309
  H      -0.939571     -7.046798     -3.204519
  O      -0.489339     -6.406864     -2.618054
  H       0.421806     -6.301191     -2.996616
  H      -3.050991     -9.688412     -0.867237
  O      -2.923162     -8.753399     -1.049270
  H      -3.830568     -8.369995     -0.804263
  H      -0.183565     -8.093615      2.710381
  O       0.648028     -7.783791      3.082714
  H       1.361010     -8.124291      2.507227
  H      -8.127988     -8.366103     -0.977327
  O      -7.394786     -7.994913     -1.476374
  H      -7.652140     -7.043386     -1.598320
  H      -2.402458     -8.655510     -2.827819
  O      -2.081313     -8.358675     -3.702253
  H      -1.482570     -9.016108     -4.074757
  H       2.404792    -10.749104     -3.916272
  O       2.153122     -9.875862     -3.607533
  H       1.339275     -9.633471     -4.108391
  H       3.585352     -8.991543      1.350563
  O       2.892124     -8.343232      1.500681
  H       3.381196     -7.524827      1.729488
  S      -2.143172    -12.230756      0.530452
  H      -2.253254    -11.993808     -0.794254
  H      -2.265043    -10.922215      0.841968
39
Coordinates from ORCA-job neb_130_341_CI_MEP.QMRegion E -2273.684943674810
  H      -2.204109     -7.981475      0.470257
  O      -1.799973     -7.532322      1.245781
  H      -2.537818     -7.162712      1.742375
  H       0.109438     -7.055510     -1.132784
  O       0.606038     -7.496896     -0.400485
  H      -0.033771     -7.568477      0.315619
  H       5.877752     -7.930742      0.168158
  O       5.555327     -8.644497     -0.429388
  H       4.755678     -8.274745     -0.853288
  H      -5.861256     -7.922656     -0.570953
  O      -5.020490     -7.978177     -0.054128
  H      -4.991608     -7.192538      0.519753
  H       2.328067     -8.096077     -0.934081
  O       3.015849     -8.064457     -1.623309
  H       2.792720     -8.773741     -2.244803
  H      -0.915588     -7.028524     -3.216558
  O      -0.465334     -6.391225     -2.626065
  H       0.443374     -6.280412     -3.010855
  H      -2.923134     -9.699316     -0.820944
  O      -2.795765     -8.769168     -1.053575
  H      -3.700763     -8.376056     -0.831232
  H      -0.089620     -8.095607      2.637266
  O       0.734428     -7.789829      3.029454
  H       1.457886     -8.121702      2.463310
  H      -7.991886     -8.379571     -1.028040
  O      -7.278213     -7.977524     -1.531118
  H      -7.570511     -7.034354     -1.632799
  H      -2.330854     -8.649877     -2.830095
  O      -2.040942     -8.337634     -3.711676
  H      -1.437116     -8.980704     -4.102215
  H       2.490414    -10.717871     -4.002032
  O       2.194816     -9.881476     -3.635034
  H       1.377932     -9.637135     -4.129967
  H       3.718441     -8.961521      1.293880
  O       2.995517     -8.346124      1.447176
  H       3.448353     -7.512423      1.697614
  S      -2.296153    -11.949504      0.311149
  H      -1.711871    -12.015115     -0.902481
  H      -1.536787    -10.901557      0.690179
39
Coordinates from ORCA-job neb_130_341_CI_MEP.QMRegion E -2273.687086763255
  H      -2.178324     -7.940903      0.497491
  O      -1.776378     -7.497464      1.280013
  H      -2.512910     -7.120068      1.772411
  H       0.121812     -7.087319     -1.141791
  O       0.592226     -7.512649     -0.383489
  H      -0.061472     -7.503942      0.325261
  H       5.885491     -7.931867      0.174154
  O       5.564469     -8.647157     -0.422736
  H       4.770355     -8.275249     -0.855632
  H      -5.825922     -7.968030     -0.532085
  O      -4.998746     -8.036462      0.003319
  H      -4.969897     -7.237036      0.558418
  H       2.405887     -8.104582     -0.887436
  O       3.041267     -8.063675     -1.622574
  H       2.793292     -8.780170     -2.226066
  H      -0.921693     -7.044632     -3.214996
  O      -0.469981     -6.406677     -2.626139
  H       0.434587     -6.289954     -3.015748
  H      -2.718217     -9.654656     -0.769603
  O      -2.727591     -8.717650     -1.016736
  H      -3.659949     -8.414525     -0.781552
  H      -0.078405     -8.072352      2.633642
  O       0.750959     -7.777608      3.024253
  H       1.466731     -8.097857      2.443201
  H      -7.960641     -8.397127     -1.039841
  O      -7.239644     -7.979717     -1.519245
  H      -7.542313     -7.040429     -1.619664
  H      -2.316004     -8.654971     -2.813381
  O      -2.049515     -8.359068     -3.708134
  H      -1.440829     -8.999309     -4.095246
  H       2.492557    -10.719756     -3.995447
  O       2.185189     -9.890812     -3.620548
  H       1.372785     -9.645979     -4.122808
  H       3.736211     -8.941825      1.280731
  O       3.005790     -8.327512      1.401294
  H       3.448373     -7.493629      1.671910
  S      -1.389189    -11.560292      0.097634
  H      -0.881336    -11.885422     -1.109244
  H      -0.591263    -10.473210      0.183116
39
Coordinates from ORCA-job neb_130_341_CI_MEP.QMRegion E -2273.689678551664
  H      -2.179279     -7.957794      0.564254
  O      -1.792339     -7.466864      1.324671
  H      -2.536538     -7.071724      1.791250
  H       0.082294     -7.105100     -1.160437
  O       0.528967     -7.501298     -0.369316
  H      -0.136041     -7.421893      0.327429
  H       5.862653     -7.913962      0.162803
  O       5.546326     -8.630078     -0.435450
  H       4.757251     -8.260274     -0.878229
  H      -5.793075     -8.065780     -0.502401
  O      -4.984728     -8.141962      0.058627
  H      -4.953067     -7.319029      0.577514
  H       2.462472     -8.111214     -0.828681
  O       3.023214     -8.068451     -1.620098
  H       2.744563     -8.798094     -2.193541
  H      -0.952903     -7.111849     -3.202038
  O      -0.491502     -6.455853     -2.640511
  H       0.405049     -6.336047     -3.044219
  H      -2.493623     -9.742913     -0.655870
  O      -2.659820     -8.826816     -0.909805
  H      -3.612849     -8.622260     -0.665297
  H      -0.111506     -8.047183      2.648115
  O       0.727341     -7.757478      3.022997
  H       1.427202     -8.070300      2.418943
  H      -7.947153     -8.457073     -1.029411
  O      -7.228726     -8.020669     -1.496097
  H      -7.541701     -7.086800     -1.594022
  H      -2.332590     -8.746369     -2.761857
  O      -2.091651     -8.442246     -3.659761
  H      -1.485321     -9.080032     -4.054298
  H       2.438637    -10.751699     -3.941353
  O       2.127006     -9.920815     -3.573152
  H       1.332480     -9.668069     -4.101026
  H       3.657827     -8.919917      1.265682
  O       2.949004     -8.274143      1.341080
  H       3.410700     -7.459012      1.638910
  S       0.107682    -10.879595     -0.249055
  H       0.595623    -11.125329     -1.482022
  H       0.361628     -9.545185     -0.374780
