48
Coordinates from ORCA-job neb_169_242_CI_MEP.QMRegion E -2487.694106951505
  H      -1.642524     -0.873676     -4.585186
  O      -1.116506     -0.626547     -5.374883
  H      -0.382360     -0.100022     -5.029440
  H      -3.323843      1.508731     -4.109449
  O      -4.182514      1.049272     -3.909385
  H      -4.387945      1.214096     -2.947836
  H      -1.153152      1.565220     -3.897510
  O      -1.832533      2.161689     -4.274192
  H      -1.475577      2.546831     -5.102501
  H      -5.033973      5.770179     -5.566814
  O      -4.493479      4.954354     -5.617879
  H      -3.710673      5.139987     -6.164965
  H      -5.916148      4.669675     -2.892740
  O      -6.826747      4.574907     -3.248833
  H      -6.697104      3.863007     -3.918011
  H      -5.517263      3.403626     -5.620202
  O      -6.038766      2.724926     -5.152425
  H      -5.359325      2.193977     -4.684995
  H      -5.236996     -0.162040     -4.673643
  O      -5.833311     -0.866830     -4.990865
  H      -6.695078     -0.429496     -5.124808
  H      -7.475707      1.568371     -5.253793
  O      -8.029895      0.815503     -4.983260
  H      -8.932296      1.209983     -4.815422
  H      -4.097271     -3.131487     -4.877002
  O      -4.230778     -3.031114     -5.850796
  H      -4.789851     -2.242555     -5.910545
  H     -10.265348      2.913361     -4.893358
  O     -10.316877      2.028779     -4.499376
  H     -10.449969      2.255872     -3.549181
  H      -1.348081      3.780375     -7.020380
  O      -0.853957      3.002027     -6.713785
  H      -1.072600      2.226366     -7.285098
  H      -0.102284      0.394278     -8.214423
  O      -1.016801      0.615170     -7.954374
  H      -1.175586      0.104866     -7.139617
  H      -5.815172      7.442401     -4.212377
  O      -6.320253      6.821653     -4.778348
  H      -6.568988      6.082902     -4.170490
  H      -9.797719      5.747419     -4.649794
  O     -10.343705      4.955098     -4.446583
  H     -11.245020      5.230920     -4.632111
  H      -9.222562      8.001805     -4.460106
  O      -9.006009      7.314012     -5.096670
  H      -8.024374      7.255186     -5.054865
  S      -4.369400      1.583834     -8.101751
  H      -3.217597      1.027542     -8.532994
  H      -4.648861      0.515689     -7.322357
48
Coordinates from ORCA-job neb_169_242_CI_MEP.QMRegion E -2487.690887719842
  H      -1.632322     -0.881593     -4.584653
  O      -1.111952     -0.631700     -5.376676
  H      -0.374526     -0.106731     -5.036348
  H      -3.306248      1.500861     -4.101571
  O      -4.167736      1.044469     -3.903958
  H      -4.372599      1.206810     -2.941541
  H      -1.142991      1.556607     -3.893062
  O      -1.820367      2.155730     -4.270677
  H      -1.459704      2.539050     -5.098352
  H      -5.023283      5.769235     -5.553506
  O      -4.477964      4.956248     -5.598656
  H      -3.695165      5.144200     -6.145003
  H      -5.904647      4.679149     -2.867026
  O      -6.816387      4.586275     -3.222483
  H      -6.684393      3.863871     -3.881348
  H      -5.516474      3.401170     -5.571234
  O      -6.034452      2.731533     -5.086282
  H      -5.347711      2.186165     -4.645142
  H      -5.226501     -0.172500     -4.677446
  O      -5.829096     -0.879892     -4.974802
  H      -6.691424     -0.442036     -5.097756
  H      -7.471408      1.573934     -5.197585
  O      -8.028636      0.808582     -4.970510
  H      -8.934079      1.195586     -4.796727
  H      -4.087570     -3.141059     -4.874388
  O      -4.222964     -3.041673     -5.848243
  H      -4.772861     -2.247013     -5.908500
  H     -10.246604      2.902465     -4.883180
  O     -10.314085      2.018598     -4.489819
  H     -10.451959      2.248135     -3.540551
  H      -1.322558      3.777246     -7.017978
  O      -0.844216      2.993281     -6.702627
  H      -1.045344      2.215436     -7.283602
  H      -0.099496      0.405030     -8.212308
  O      -1.014434      0.630879     -7.957706
  H      -1.182297      0.101491     -7.158046
  H      -5.800749      7.437662     -4.205578
  O      -6.307104      6.815657     -4.769455
  H      -6.553039      6.077135     -4.159223
  H      -9.763743      5.751011     -4.608679
  O     -10.309568      4.948346     -4.446948
  H     -11.206493      5.226910     -4.648963
  H      -9.177827      7.992161     -4.341116
  O      -8.988716      7.329557     -5.012201
  H      -8.006337      7.260792     -5.004955
  S      -5.169561      2.296132     -8.440837
  H      -4.151868      1.523313     -8.873524
  H      -5.839552      1.228076     -7.953558
48
Coordinates from ORCA-job neb_169_242_CI_MEP.QMRegion E -2487.689731119624
  H      -1.633651     -0.879519     -4.582176
  O      -1.117682     -0.629352     -5.377142
  H      -0.380678     -0.101663     -5.040120
  H      -3.304968      1.508042     -4.093458
  O      -4.167359      1.051209     -3.901154
  H      -4.375480      1.209863     -2.938639
  H      -1.144429      1.561125     -3.891754
  O      -1.820442      2.160998     -4.270400
  H      -1.459422      2.544474     -5.098069
  H      -5.026277      5.769844     -5.548644
  O      -4.478608      4.958530     -5.594797
  H      -3.700938      5.149953     -6.146674
  H      -5.912342      4.691607     -2.860035
  O      -6.821572      4.592639     -3.219619
  H      -6.680123      3.868875     -3.876029
  H      -5.539847      3.375036     -5.587888
  O      -6.040429      2.726205     -5.060675
  H      -5.344065      2.193114     -4.618032
  H      -5.227190     -0.172508     -4.680891
  O      -5.830425     -0.880862     -4.972755
  H      -6.688099     -0.439103     -5.111629
  H      -7.463694      1.581618     -5.198739
  O      -8.028722      0.817569     -4.983308
  H      -8.931476      1.206750     -4.802567
  H      -4.094614     -3.138063     -4.874536
  O      -4.225300     -3.040348     -5.849011
  H      -4.769169     -2.241835     -5.914142
  H     -10.244830      2.902771     -4.877312
  O     -10.316000      2.019034     -4.484685
  H     -10.453204      2.249729     -3.535103
  H      -1.330880      3.776599     -7.027886
  O      -0.852173      2.994368     -6.708855
  H      -1.049268      2.213618     -7.289265
  H      -0.109348      0.419822     -8.215105
  O      -1.024641      0.644381     -7.962482
  H      -1.197535      0.107988     -7.168958
  H      -5.802985      7.436750     -4.205288
  O      -6.312241      6.816211     -4.768005
  H      -6.557008      6.076695     -4.158118
  H      -9.755419      5.753152     -4.589731
  O     -10.302112      4.948214     -4.442809
  H     -11.195747      5.227233     -4.658333
  H      -9.164695      7.988376     -4.275626
  O      -8.990878      7.344751     -4.969054
  H      -8.008670      7.270864     -4.979582
  S      -5.705491      2.797823     -8.588608
  H      -4.860738      1.792869     -8.901826
  H      -6.668689      1.930050     -8.206517
48
Coordinates from ORCA-job neb_169_242_CI_MEP.QMRegion E -2487.689545922294
  H      -1.640917     -0.876319     -4.584661
  O      -1.127179     -0.626048     -5.381095
  H      -0.391637     -0.095450     -5.045410
  H      -3.312280      1.517111     -4.090304
  O      -4.174755      1.060739     -3.899755
  H      -4.380141      1.215037     -2.935920
  H      -1.147459      1.565821     -3.893955
  O      -1.824996      2.165270     -4.269998
  H      -1.467093      2.552102     -5.097621
  H      -5.042188      5.760129     -5.555708
  O      -4.485036      4.955466     -5.594776
  H      -3.708994      5.155935     -6.145732
  H      -5.915059      4.694586     -2.863883
  O      -6.825615      4.596725     -3.221153
  H      -6.689504      3.876832     -3.881547
  H      -5.576194      3.366974     -5.619212
  O      -6.058561      2.717352     -5.077627
  H      -5.352683      2.205794     -4.624308
  H      -5.239986     -0.162846     -4.679046
  O      -5.840478     -0.873710     -4.970014
  H      -6.698975     -0.434384     -5.113205
  H      -7.460987      1.575969     -5.206671
  O      -8.034127      0.818545     -4.986999
  H      -8.933168      1.215542     -4.809059
  H      -4.100793     -3.134118     -4.875704
  O      -4.231463     -3.036002     -5.849884
  H      -4.776548     -2.238225     -5.914899
  H     -10.256556      2.912902     -4.869507
  O     -10.320660      2.025830     -4.483420
  H     -10.455027      2.250002     -3.531670
  H      -1.338399      3.781874     -7.029428
  O      -0.860963      2.998459     -6.710672
  H      -1.061850      2.219015     -7.291662
  H      -0.123811      0.426346     -8.213913
  O      -1.039596      0.652794     -7.966680
  H      -1.219054      0.116295     -7.174816
  H      -5.813715      7.439040     -4.203454
  O      -6.327641      6.822583     -4.766484
  H      -6.570581      6.081344     -4.158289
  H      -9.765918      5.760048     -4.571217
  O     -10.309278      4.949999     -4.438770
  H     -11.204021      5.228240     -4.650670
  H      -9.172946      7.983112     -4.222457
  O      -9.008615      7.353886     -4.931280
  H      -8.026407      7.282615     -4.958447
  S      -6.178154      3.243879     -8.638771
  H      -5.610525      2.031378     -8.814076
  H      -7.332664      2.688393     -8.208338
48
Coordinates from ORCA-job neb_169_242_CI_MEP.QMRegion E -2487.689600588043
  H      -1.640457     -0.876191     -4.587038
  O      -1.127736     -0.625694     -5.383896
  H      -0.392007     -0.094787     -5.049208
  H      -3.306489      1.512223     -4.089112
  O      -4.169491      1.055658     -3.899746
  H      -4.378644      1.211248     -2.937007
  H      -1.146286      1.564990     -3.894434
  O      -1.823540      2.164606     -4.270844
  H      -1.465406      2.550301     -5.099034
  H      -5.032991      5.757055     -5.559869
  O      -4.472766      4.954380     -5.590102
  H      -3.696579      5.152994     -6.141804
  H      -5.912847      4.682456     -2.873667
  O      -6.823250      4.582484     -3.230806
  H      -6.687012      3.857901     -3.886234
  H      -5.559723      3.379741     -5.600836
  O      -6.037218      2.708388     -5.081319
  H      -5.330662      2.199479     -4.625604
  H      -5.232439     -0.169094     -4.680475
  O      -5.831991     -0.880869     -4.971074
  H      -6.690346     -0.442956     -5.116194
  H      -7.463007      1.572682     -5.212108
  O      -8.031997      0.814517     -4.986370
  H      -8.931087      1.207994     -4.802655
  H      -4.099349     -3.135754     -4.876985
  O      -4.228790     -3.039696     -5.851441
  H      -4.771630     -2.240627     -5.918905
  H     -10.247300      2.906190     -4.866654
  O     -10.318599      2.019919     -4.480316
  H     -10.454601      2.245716     -3.529133
  H      -1.335332      3.780344     -7.030620
  O      -0.858841      2.996992     -6.711063
  H      -1.057796      2.217679     -7.293388
  H      -0.117099      0.427394     -8.217673
  O      -1.032944      0.654707     -7.971310
  H      -1.215937      0.114180     -7.183301
  H      -5.805472      7.432116     -4.205540
  O      -6.320497      6.816541     -4.768617
  H      -6.561165      6.072490     -4.163240
  H      -9.744648      5.761984     -4.563748
  O     -10.290669      4.950540     -4.451303
  H     -11.180470      5.234143     -4.676945
  H      -9.146391      7.982675     -4.168713
  O      -8.993806      7.367035     -4.892018
  H      -8.012150      7.288966     -4.930637
  S      -6.684288      3.696946     -8.439489
  H      -6.400221      2.390329     -8.628470
  H      -7.889001      3.403135     -7.904970
48
Coordinates from ORCA-job neb_169_242_CI_MEP.QMRegion E -2487.690664906731
  H      -1.642159     -0.874208     -4.587550
  O      -1.129902     -0.623841     -5.384755
  H      -0.394885     -0.091705     -5.050467
  H      -3.307020      1.514606     -4.087037
  O      -4.169895      1.057182     -3.899724
  H      -4.381602      1.213679     -2.937842
  H      -1.146592      1.566634     -3.892318
  O      -1.824007      2.166230     -4.268551
  H      -1.466517      2.552032     -5.097005
  H      -5.035846      5.746062     -5.571975
  O      -4.470131      4.947280     -5.592353
  H      -3.691771      5.147856     -6.140550
  H      -5.910771      4.669231     -2.882342
  O      -6.821300      4.570544     -3.239726
  H      -6.688749      3.846837     -3.896084
  H      -5.554540      3.395040     -5.598528
  O      -6.029511      2.700305     -5.107411
  H      -5.324177      2.193030     -4.648230
  H      -5.231175     -0.168969     -4.680426
  O      -5.829679     -0.882035     -4.969945
  H      -6.687964     -0.445621     -5.118322
  H      -7.462692      1.569422     -5.213978
  O      -8.030751      0.811981     -4.984167
  H      -8.929588      1.204976     -4.801559
  H      -4.100061     -3.134446     -4.877047
  O      -4.229238     -3.039296     -5.851505
  H      -4.771534     -2.239866     -5.919737
  H     -10.248673      2.905666     -4.860572
  O     -10.318923      2.018907     -4.476094
  H     -10.454456      2.242942     -3.524369
  H      -1.334947      3.782166     -7.027612
  O      -0.859427      2.998363     -6.707807
  H      -1.058922      2.219818     -7.291109
  H      -0.117118      0.430511     -8.218291
  O      -1.032963      0.659140     -7.973275
  H      -1.219159      0.116306     -7.187738
  H      -5.801519      7.427206     -4.201388
  O      -6.318556      6.815284     -4.766962
  H      -6.555479      6.065909     -4.167204
  H      -9.731174      5.775647     -4.539908
  O     -10.273545      4.956617     -4.463498
  H     -11.162619      5.245153     -4.686440
  H      -9.122817      7.982719     -4.096755
  O      -8.984834      7.378669     -4.832643
  H      -8.003718      7.297069     -4.889751
  S      -7.226233      4.146877     -8.106102
  H      -7.159812      2.809830     -8.284909
  H      -8.373079      4.044544     -7.402056
48
Coordinates from ORCA-job neb_169_242_CI_MEP.QMRegion E -2487.693153266704
  H      -1.638499     -0.879746     -4.595779
  O      -1.131347     -0.625449     -5.394622
  H      -0.392673     -0.096832     -5.062800
  H      -3.304432      1.514868     -4.089351
  O      -4.169132      1.056418     -3.912065
  H      -4.388800      1.213988     -2.953142
  H      -1.142926      1.560210     -3.898276
  O      -1.819202      2.162061     -4.273026
  H      -1.467159      2.539549     -5.107473
  H      -5.039316      5.719941     -5.603854
  O      -4.471793      4.922528     -5.615212
  H      -3.688465      5.125019     -6.156418
  H      -5.904720      4.643635     -2.905840
  O      -6.813840      4.543277     -3.265735
  H      -6.683191      3.823632     -3.925406
  H      -5.555663      3.399458     -5.640674
  O      -6.023828      2.681022     -5.177389
  H      -5.315307      2.182300     -4.715211
  H      -5.219659     -0.183148     -4.701652
  O      -5.822107     -0.895131     -4.984600
  H      -6.676455     -0.455389     -5.143512
  H      -7.447569      1.554844     -5.245567
  O      -8.018629      0.804448     -4.999848
  H      -8.915181      1.203719     -4.832739
  H      -4.098801     -3.137959     -4.884347
  O      -4.224119     -3.047348     -5.859453
  H      -4.764203     -2.247067     -5.934661
  H     -10.224264      2.920636     -4.885558
  O     -10.306168      2.034312     -4.505016
  H     -10.446153      2.251365     -3.553477
  H      -1.328450      3.773536     -7.037875
  O      -0.855778      2.989274     -6.716037
  H      -1.048317      2.211787     -7.303897
  H      -0.105208      0.428772     -8.234239
  O      -1.022749      0.656701     -7.993501
  H      -1.214433      0.106769     -7.214850
  H      -5.784671      7.407282     -4.200169
  O      -6.301315      6.808992     -4.780741
  H      -6.545097      6.045337     -4.202949
  H      -9.709992      5.812527     -4.494371
  O     -10.239962      4.979257     -4.485664
  H     -11.127294      5.264471     -4.721340
  H      -9.065462      7.975860     -4.002499
  O      -8.957974      7.385872     -4.754465
  H      -7.978942      7.299137     -4.850276
  S      -7.941991      4.702479     -7.473762
  H      -8.073062      3.362404     -7.577503
  H      -8.914492      4.778759     -6.538406
