30
Coordinates from ORCA-job neb_86_202_CI_MEP.QMRegion E -2059.690797002901
  H       6.357109      1.225298      4.762461
  O       6.060902      1.782420      5.507043
  H       6.205300      2.691071      5.146166
  H       7.626928      0.027556      3.207041
  O       6.692876      0.273058      3.295477
  H       6.216905     -0.525335      3.640208
  H       7.609260     -2.595545      4.237639
  O       7.695466     -2.650962      3.269197
  H       7.198953     -3.464364      3.067447
  H       5.768938      0.066865      0.346569
  O       5.582475      0.821410      0.939847
  H       6.009828      0.596495      1.799035
  H       9.452057      0.105362     -1.053127
  O       8.746976      0.447765     -0.483515
  H       8.381371     -0.374683     -0.107019
  H       7.981405     -3.052424      0.358328
  O       8.430807     -2.202482      0.559131
  H       8.389104     -2.168390      1.528871
  H       6.085715      1.924535     -0.537827
  O       6.644467      2.161124     -1.294513
  H       7.476506      1.694544     -1.115729
  H       9.702529     -2.158926     -1.076885
  O       9.939244     -1.802430     -1.948111
  H       9.068446     -1.603582     -2.355951
  H       9.976092     -3.311020     -3.252557
  O       9.700897     -3.985751     -3.897696
  H       9.209189     -3.489131     -4.569071
  S       9.866733      0.925300      2.710291
  H       9.230578      2.105681      2.876573
  H       9.585054      0.895432      1.379304
30
Coordinates from ORCA-job neb_86_202_CI_MEP.QMRegion E -2059.686836775673
  H       6.415769      1.253465      4.803798
  O       6.064453      1.809735      5.520301
  H       6.201481      2.718240      5.150137
  H       7.633127     -0.138781      3.186513
  O       6.759137      0.249241      3.309584
  H       6.205739     -0.498584      3.657456
  H       7.575741     -2.598578      4.263632
  O       7.668216     -2.619971      3.293265
  H       7.166011     -3.420227      3.060135
  H       5.774535      0.086483      0.351367
  O       5.594914      0.835318      0.954064
  H       6.027342      0.606189      1.807010
  H       9.344182      0.261082     -1.056528
  O       8.734761      0.762819     -0.486145
  H       8.295070      0.049366     -0.001311
  H       7.934002     -3.010528      0.376421
  O       8.340930     -2.134893      0.552416
  H       8.362538     -2.098022      1.520812
  H       6.006674      2.015211     -0.549602
  O       6.562378      2.224776     -1.312866
  H       7.428494      1.837703     -1.095206
  H       9.537512     -1.899694     -0.938460
  O       9.849572     -1.529491     -1.784748
  H       9.015221     -1.427798     -2.295198
  H       9.908197     -3.172174     -3.165026
  O       9.664282     -3.846969     -3.817359
  H       9.190956     -3.362007     -4.511367
  S      10.514306      0.353901      2.337875
  H       9.998036      1.086499      1.323643
  H      10.881434     -0.616521      1.474777
30
Coordinates from ORCA-job neb_86_202_CI_MEP.QMRegion E -2059.683990124117
  H       6.439219      1.252208      4.822498
  O       6.067832      1.811024      5.525408
  H       6.201670      2.718328      5.150186
  H       7.572690     -0.274347      3.183922
  O       6.757969      0.218108      3.323816
  H       6.150833     -0.483498      3.686054
  H       7.593600     -2.613317      4.290649
  O       7.697489     -2.607757      3.320221
  H       7.177525     -3.386966      3.058459
  H       5.774950      0.080261      0.359745
  O       5.592039      0.824091      0.967759
  H       6.020762      0.589696      1.820507
  H       9.303615      0.241937     -1.014095
  O       8.718896      0.762225     -0.434287
  H       8.291982      0.063268      0.080310
  H       7.923413     -3.026881      0.393579
  O       8.340373     -2.154352      0.564301
  H       8.457610     -2.152066      1.524969
  H       5.983528      2.018545     -0.556428
  O       6.557284      2.218408     -1.307910
  H       7.414223      1.822428     -1.067607
  H       9.493937     -1.908939     -0.903103
  O       9.826632     -1.538786     -1.743851
  H       9.005020     -1.432852     -2.273016
  H       9.897459     -3.176154     -3.141739
  O       9.665956     -3.846848     -3.802734
  H       9.192747     -3.361399     -4.496324
  S      11.252015      0.199563      1.807434
  H      10.406830      0.999851      1.120580
  H      11.400716     -0.604958      0.734817
30
Coordinates from ORCA-job neb_86_202_CI_MEP.QMRegion E -2059.682925540226
  H       6.447193      1.256624      4.841828
  O       6.068197      1.817212      5.538941
  H       6.200082      2.723072      5.159378
  H       7.555702     -0.298507      3.195554
  O       6.756660      0.216725      3.341732
  H       6.137494     -0.475051      3.704344
  H       7.599007     -2.614838      4.307936
  O       7.705859     -2.603331      3.337405
  H       7.181143     -3.377220      3.069294
  H       5.779292      0.077681      0.369589
  O       5.591494      0.818955      0.979072
  H       6.017850      0.585873      1.832925
  H       9.300066      0.232877     -0.965228
  O       8.724254      0.752716     -0.378759
  H       8.303690      0.054084      0.140581
  H       7.915535     -3.035963      0.410218
  O       8.333915     -2.166097      0.591960
  H       8.464563     -2.184123      1.550501
  H       5.982239      2.018842     -0.555236
  O       6.566879      2.211045     -1.300077
  H       7.416669      1.808544     -1.044281
  H       9.470891     -1.930666     -0.873388
  O       9.814530     -1.572145     -1.715529
  H       8.999426     -1.446208     -2.249876
  H       9.890137     -3.184580     -3.115713
  O       9.671993     -3.850047     -3.786921
  H       9.198658     -3.363064     -4.479037
  S      11.808520      0.035777      1.255160
  H      10.885307      0.968592      0.941926
  H      11.567935     -0.633914      0.109737
30
Coordinates from ORCA-job neb_86_202_CI_MEP.QMRegion E -2059.682609667502
  H       6.453964      1.249457      4.832664
  O       6.072837      1.809507      5.528781
  H       6.205101      2.716003      5.151113
  H       7.554204     -0.323302      3.170991
  O       6.764779      0.203260      3.329600
  H       6.140912     -0.480395      3.698131
  H       7.615470     -2.615340      4.305384
  O       7.732411     -2.609086      3.335882
  H       7.201583     -3.378424      3.066418
  H       5.778883      0.085973      0.364728
  O       5.587756      0.822865      0.977767
  H       6.023007      0.589543      1.827168
  H       9.348981      0.209681     -0.958430
  O       8.700306      0.649928     -0.389767
  H       8.317079     -0.102533      0.082774
  H       7.941507     -3.054760      0.401209
  O       8.388811     -2.197820      0.579200
  H       8.519422     -2.215147      1.537559
  H       6.003247      2.016291     -0.550232
  O       6.589155      2.200684     -1.296480
  H       7.424720      1.765767     -1.048596
  H       9.525470     -2.021344     -0.921312
  O       9.856592     -1.686253     -1.776709
  H       9.030543     -1.497919     -2.274070
  H       9.904901     -3.228930     -3.131331
  O       9.684271     -3.892332     -3.806441
  H       9.204153     -3.401398     -4.490425
  S      12.194809     -0.246447      0.862763
  H      11.573652      0.927105      0.626205
  H      11.688768     -0.794515     -0.260932
30
Coordinates from ORCA-job neb_86_202_CI_MEP.QMRegion E -2059.682409727199
  H       6.459436      1.222485      4.785645
  O       6.082545      1.780727      5.485071
  H       6.218406      2.689960      5.116101
  H       7.554751     -0.379471      3.101099
  O       6.780688      0.164386      3.278886
  H       6.150975     -0.503602      3.662978
  H       7.631863     -2.625944      4.279369
  O       7.763071     -2.633369      3.312027
  H       7.227969     -3.400996      3.044713
  H       5.771644      0.093932      0.338999
  O       5.580333      0.826838      0.956994
  H       6.033429      0.588857      1.795877
  H       9.468699      0.250317     -0.811966
  O       8.633310      0.508968     -0.407842
  H       8.327263     -0.325423     -0.018055
  H       7.984839     -3.090839      0.364160
  O       8.471043     -2.252307      0.534703
  H       8.585414     -2.257191      1.494923
  H       6.036598      1.998967     -0.551169
  O       6.616193      2.185622     -1.302894
  H       7.436233      1.713879     -1.077549
  H       9.610541     -2.149784     -1.014787
  O       9.923033     -1.847364     -1.886498
  H       9.095704     -1.546185     -2.319716
  H       9.916985     -3.302822     -3.184799
  O       9.694563     -3.969523     -3.860419
  H       9.201573     -3.476996     -4.533579
  S      12.237136     -0.448422      0.618675
  H      12.193031      0.805287      0.120371
  H      11.811469     -0.986021     -0.543859
30
Coordinates from ORCA-job neb_86_202_CI_MEP.QMRegion E -2059.685038288581
  H       6.470727      1.224919      4.803168
  O       6.087627      1.785037      5.497936
  H       6.222499      2.692600      5.125361
  H       7.569999     -0.368533      3.111404
  O       6.793927      0.168822      3.297881
  H       6.164423     -0.503361      3.673889
  H       7.645853     -2.621116      4.285609
  O       7.779944     -2.639422      3.318694
  H       7.242920     -3.408427      3.058426
  H       5.785838      0.097565      0.345856
  O       5.584830      0.827679      0.964147
  H       6.050989      0.599236      1.797542
  H       9.605807      0.477278     -0.218102
  O       8.640454      0.501836     -0.270644
  H       8.385249     -0.400450     -0.019468
  H       8.020171     -3.114755      0.371456
  O       8.521387     -2.288025      0.557740
  H       8.572888     -2.277924      1.523942
  H       6.094707      1.984188     -0.527897
  O       6.656852      2.175459     -1.292682
  H       7.487981      1.725548     -1.069404
  H       9.637103     -2.234372     -1.019019
  O       9.954980     -1.986410     -1.903845
  H       9.172201     -1.552210     -2.298671
  H       9.908068     -3.350446     -3.167386
  O       9.711753     -4.011131     -3.861697
  H       9.213288     -3.516018     -4.527910
  S      11.965961     -0.267973      0.443427
  H      12.545099      0.742138     -0.238013
  H      11.700327     -0.967071     -0.682095
30
Coordinates from ORCA-job neb_86_202_CI_MEP.QMRegion E -2059.685889389811
  H       6.450851      1.225530      4.802569
  O       6.079947      1.785000      5.505194
  H       6.215945      2.692338      5.133226
  H       7.549621     -0.288648      3.053642
  O       6.757114      0.202496      3.288363
  H       6.163281     -0.501153      3.662785
  H       7.628479     -2.612659      4.278432
  O       7.744310     -2.640530      3.309824
  H       7.216434     -3.422395      3.068552
  H       5.766096      0.113786      0.350544
  O       5.537818      0.838426      0.962692
  H       6.014391      0.630030      1.796389
  H       9.397247      0.622118      0.343411
  O       8.440337      0.517977      0.215095
  H       8.323501     -0.446684      0.215691
  H       8.052860     -3.154177      0.388443
  O       8.578484     -2.346588      0.592710
  H       8.591064     -2.337262      1.561541
  H       6.016510      1.992924     -0.545197
  O       6.637910      2.159109     -1.270178
  H       7.437228      1.706512     -0.958337
  H       9.637004     -2.203508     -0.989886
  O       9.947494     -1.916068     -1.866172
  H       9.141447     -1.539155     -2.273804
  H       9.918487     -3.327725     -3.156573
  O       9.710575     -3.989607     -3.843702
  H       9.213856     -3.495630     -4.512339
  S      11.763923      0.310651      0.252791
  H      11.838583      1.329886     -0.627998
  H      11.337254     -0.550586     -0.700809
30
Coordinates from ORCA-job neb_86_202_CI_MEP.QMRegion E -2059.685262218923
  H       6.443290      1.228853      4.781076
  O       6.079839      1.784694      5.490195
  H       6.214843      2.694430      5.121876
  H       7.540371     -0.294543      3.051374
  O       6.746587      0.202593      3.267896
  H       6.148945     -0.496350      3.646304
  H       7.608460     -2.611471      4.260810
  O       7.726423     -2.637103      3.292529
  H       7.206395     -3.423522      3.048454
  H       5.766123      0.117953      0.328704
  O       5.542910      0.843377      0.942928
  H       6.011928      0.627011      1.778169
  H       9.467648      0.675266      0.059095
  O       8.502404      0.581555      0.032120
  H       8.362799     -0.378148      0.078217
  H       8.042724     -3.114508      0.341088
  O       8.540902     -2.291565      0.551825
  H       8.515612     -2.273307      1.519969
  H       6.000559      2.014209     -0.565471
  O       6.617147      2.177583     -1.293855
  H       7.423886      1.727895     -0.991972
  H       9.673752     -2.158105     -1.061954
  O       9.953331     -1.896141     -1.953475
  H       9.128297     -1.538342     -2.341466
  H       9.901654     -3.318603     -3.192902
  O       9.692437     -3.991984     -3.870329
  H       9.194109     -3.505702     -4.543627
  S      11.868400      0.442824      0.069541
  H      11.739072      0.305807     -1.265375
  H      11.628454     -0.869903      0.253820
30
Coordinates from ORCA-job neb_86_202_CI_MEP.QMRegion E -2059.688476182006
  H       6.457677      1.240471      4.801495
  O       6.084651      1.798311      5.503754
  H       6.216893      2.706484      5.129575
  H       7.554694     -0.307183      3.093253
  O       6.763855      0.202233      3.292255
  H       6.154414     -0.489060      3.666335
  H       7.620721     -2.608597      4.275421
  O       7.743611     -2.630502      3.307299
  H       7.214332     -3.408506      3.057463
  H       5.780818      0.112716      0.339425
  O       5.566207      0.840243      0.954721
  H       6.029857      0.619996      1.791656
  H       9.573478      0.673564     -0.225969
  O       8.614178      0.620956     -0.079248
  H       8.441962     -0.327186      0.026317
  H       8.004852     -3.105758      0.362705
  O       8.502276     -2.275540      0.547042
  H       8.530110     -2.254608      1.514598
  H       6.042029      2.008522     -0.551731
  O       6.635507      2.176100     -1.297703
  H       7.458090      1.737729     -1.020508
  H       9.596421     -2.262011     -1.027136
  O       9.873913     -2.046924     -1.935254
  H       9.067766     -1.644709     -2.326751
  H       9.894141     -3.397367     -3.232741
  O       9.682538     -4.053936     -3.923224
  H       9.175307     -3.554678     -4.580294
  S      11.871107      0.360506     -0.875941
  H      11.212032     -0.638325     -1.528584
  H      12.177918     -0.449367      0.157828
