24
Coordinates from ORCA-job neb_129_152_CI_MEP.QMRegion E -1917.013536670634
  H       6.371803     -4.195946     -0.527041
  O       7.138711     -4.578489     -0.063307
  H       7.616280     -5.013916     -0.803416
  H       7.514665     -2.575880      4.259283
  O       7.711748     -2.632278      3.307559
  H       7.182997     -3.405159      3.035362
  H       6.630834     -5.971963      2.685945
  O       6.736811     -5.287061      3.383423
  H       7.574848     -5.455787      3.844007
  H       9.295859      0.253989     -1.151343
  O       8.645560      0.503745     -0.488138
  H       8.352237     -0.348944     -0.125420
  H       7.945131     -3.033378      0.304452
  O       8.390459     -2.186343      0.518846
  H       8.429561     -2.190636      1.485590
  H       9.231993     -4.094678      4.184556
  O       9.087970     -4.771480      4.862139
  H       8.587847     -4.281377      5.533839
  H       9.686361     -2.236510     -1.082183
  O       9.919264     -1.944585     -1.976285
  H       9.051970     -1.697791     -2.366505
  S      11.986841     -6.296216      6.080196
  H      10.932530     -5.552059      5.675775
  H      11.371472     -7.441199      5.721882
24
Coordinates from ORCA-job neb_129_152_CI_MEP.QMRegion E -1917.012484604325
  H       6.366691     -4.196263     -0.524052
  O       7.131496     -4.578916     -0.057452
  H       7.616212     -5.009044     -0.795552
  H       7.453259     -2.607179      4.311479
  O       7.655816     -2.662964      3.358225
  H       7.109228     -3.420545      3.075253
  H       6.612070     -5.998470      2.687507
  O       6.720363     -5.320519      3.392375
  H       7.565227     -5.486550      3.840571
  H       9.282796      0.221065     -1.027526
  O       8.606630      0.493742     -0.400327
  H       8.295637     -0.347829     -0.026029
  H       7.911189     -3.037916      0.371736
  O       8.347340     -2.191304      0.604128
  H       8.398475     -2.222907      1.569834
  H       9.016006     -4.006106      4.143923
  O       9.109566     -4.752342      4.760984
  H       8.700637     -4.399585      5.563274
  H       9.640429     -2.259038     -1.029252
  O       9.887279     -1.954950     -1.915229
  H       9.028791     -1.703394     -2.320734
  S      12.417085     -5.812760      4.867535
  H      11.357719     -4.977010      4.901442
  H      11.596246     -6.881575      4.846740
24
Coordinates from ORCA-job neb_129_152_CI_MEP.QMRegion E -1917.011700533696
  H       6.384310     -4.191338     -0.531168
  O       7.146642     -4.577613     -0.062941
  H       7.626774     -5.013902     -0.800938
  H       7.498716     -2.610888      4.297773
  O       7.706081     -2.662414      3.345148
  H       7.153588     -3.413514      3.056690
  H       6.616861     -5.988585      2.681846
  O       6.723416     -5.309666      3.385075
  H       7.568272     -5.478749      3.836187
  H       9.302064      0.244045     -1.093647
  O       8.634730      0.499023     -0.449563
  H       8.342273     -0.350446     -0.078924
  H       7.954853     -3.041657      0.334465
  O       8.398882     -2.196330      0.558786
  H       8.454443     -2.221145      1.524145
  H       9.047736     -4.057959      4.134292
  O       9.116737     -4.815499      4.739192
  H       8.722976     -4.459999      5.547491
  H       9.684985     -2.242068     -1.070066
  O       9.917148     -1.939294     -1.960570
  H       9.050533     -1.692939     -2.352071
  S      12.588410     -5.665964      4.205499
  H      11.767742     -4.599528      4.152832
  H      11.569997     -6.455032      4.598474
24
Coordinates from ORCA-job neb_129_152_CI_MEP.QMRegion E -1917.011734793749
  H       6.393282     -4.187921     -0.530923
  O       7.155820     -4.575629     -0.064097
  H       7.632716     -5.013058     -0.803660
  H       7.559592     -2.608462      4.290218
  O       7.754433     -2.657159      3.336308
  H       7.214282     -3.420731      3.058488
  H       6.630702     -5.977361      2.682616
  O       6.737669     -5.297150      3.384263
  H       7.568067     -5.482576      3.855717
  H       9.311356      0.249527     -1.101651
  O       8.643274      0.501240     -0.457086
  H       8.357659     -0.349373     -0.083655
  H       7.973181     -3.038528      0.329751
  O       8.424386     -2.197347      0.554917
  H       8.468034     -2.218124      1.521758
  H       9.201022     -4.179897      4.241655
  O       9.079987     -4.913922      4.861352
  H       8.632201     -4.477110      5.600311
  H       9.694946     -2.235726     -1.076084
  O       9.924414     -1.935905     -1.968378
  H       9.056493     -1.689478     -2.357192
  S      12.599557     -5.449989      3.855108
  H      11.916031     -4.461279      3.245343
  H      11.484090     -5.890133      4.469488
24
Coordinates from ORCA-job neb_129_152_CI_MEP.QMRegion E -1917.011990983451
  H       6.369582     -4.173297     -0.534728
  O       7.135734     -4.561756     -0.074185
  H       7.607194     -4.996834     -0.817596
  H       7.555674     -2.589620      4.210803
  O       7.636988     -2.585890      3.243326
  H       7.123663     -3.374620      2.990702
  H       6.616890     -5.937430      2.675063
  O       6.702071     -5.237318      3.356750
  H       7.554654     -5.361475      3.813908
  H       9.289705      0.280574     -1.158514
  O       8.645311      0.528160     -0.489003
  H       8.352958     -0.324875     -0.125307
  H       7.957096     -3.007456      0.281020
  O       8.412733     -2.171369      0.513366
  H       8.412961     -2.187280      1.483501
  H       9.586404     -4.428852      4.507920
  O       8.938943     -4.980004      4.963670
  H       8.476626     -4.350668      5.538817
  H       9.684751     -2.197381     -1.100442
  O       9.921144     -1.913968     -1.996491
  H       9.053394     -1.670942     -2.389702
  S      12.285179     -4.862226      3.894215
  H      11.751115     -4.397500      2.747678
  H      11.519620     -5.969646      3.884522
24
Coordinates from ORCA-job neb_129_152_CI_MEP.QMRegion E -1917.012922753159
  H       6.347399     -4.155067     -0.527978
  O       7.121956     -4.534316     -0.073807
  H       7.589597     -4.967942     -0.819371
  H       7.501813     -2.559058      4.129795
  O       7.535753     -2.541190      3.161370
  H       7.010162     -3.324962      2.918127
  H       6.590669     -5.894104      2.670520
  O       6.651557     -5.173548      3.330460
  H       7.519515     -5.245064      3.776670
  H       9.268495      0.342952     -1.237620
  O       8.664182      0.584059     -0.529536
  H       8.358012     -0.271404     -0.182167
  H       7.927817     -2.938835      0.224166
  O       8.370442     -2.099524      0.466870
  H       8.313533     -2.105754      1.436521
  H       9.612848     -4.461736      4.488634
  O       8.865871     -4.915979      4.909506
  H       8.439090     -4.229661      5.447127
  H       9.696744     -2.123495     -1.124877
  O       9.930450     -1.867420     -2.029183
  H       9.058512     -1.637258     -2.422386
  S      11.858039     -4.391602      3.495019
  H      11.354538     -3.903349      2.343046
  H      11.532663     -5.659179      3.165451
24
Coordinates from ORCA-job neb_129_152_CI_MEP.QMRegion E -1917.017856962006
  H       6.397591     -4.155760     -0.496855
  O       7.169605     -4.551009     -0.052940
  H       7.621508     -4.992137     -0.804636
  H       7.491824     -2.579158      4.220830
  O       7.490276     -2.586728      3.249439
  H       7.072563     -3.445340      3.046308
  H       6.685588     -5.947875      2.715461
  O       6.764048     -5.250632      3.397781
  H       7.630082     -5.343974      3.844480
  H       9.310235      0.235873     -1.137251
  O       8.656868      0.496396     -0.481297
  H       8.398189     -0.341582     -0.064275
  H       8.019670     -3.024234      0.378145
  O       8.455399     -2.200530      0.684509
  H       8.225752     -2.187311      1.634807
  H       9.654250     -4.355381      4.242876
  O       9.095532     -4.876821      4.845115
  H       8.675322     -4.217217      5.416667
  H       9.721681     -2.221161     -1.086318
  O       9.918188     -1.921109     -1.982825
  H       9.037228     -1.690428     -2.356192
  S      11.206171     -3.518255      2.454611
  H      10.253925     -3.031269      1.618534
  H      11.260872     -4.693691      1.795923
