15
Coordinates from ORCA-job neb_69_106_CI_MEP.QMRegion E -1703.018834523169
  H      -2.426138      2.913362     10.275799
  O      -2.312915      1.956493     10.096761
  H      -2.887817      1.787402      9.330673
  H      -2.042020      5.280368     10.738120
  O      -2.737855      4.588349     10.831890
  H      -2.912137      4.473725     11.775878
  H      -4.236412      4.929454      9.780338
  O      -4.879299      5.068108      9.060586
  H      -5.410614      4.255904      9.024421
  H       0.024152      6.311889     10.894222
  O      -0.837326      6.569507     10.552471
  H      -0.646116      6.906288      9.653621
  S      -3.777512      2.473002     13.264962
  H      -3.338636      1.840938     12.148644
  H      -5.042135      2.534606     12.799556
15
Coordinates from ORCA-job neb_69_106_CI_MEP.QMRegion E -1703.016909184296
  H      -2.465617      2.920357     10.228395
  O      -2.304487      1.969215     10.067840
  H      -2.881119      1.765039      9.312052
  H      -2.079578      5.299792     10.481898
  O      -2.806921      4.651236     10.643201
  H      -2.961932      4.679876     11.599797
  H      -4.307507      4.988064      9.677900
  O      -4.961401      5.116251      8.964008
  H      -5.478276      4.293977      8.943528
  H       0.029072      6.051707     10.690323
  O      -0.799575      6.487266     10.466861
  H      -0.620810      6.892509      9.592662
  S      -3.197640      3.757429     13.800774
  H      -2.703828      2.678255     13.157015
  H      -4.470133      3.365688     13.583503
15
Coordinates from ORCA-job neb_69_106_CI_MEP.QMRegion E -1703.016064009578
  H      -2.457940      2.979850     10.234639
  O      -2.300114      2.031213     10.063520
  H      -2.875988      1.830560      9.306900
  H      -2.043682      5.372349     10.454493
  O      -2.784646      4.745420     10.635921
  H      -2.942808      4.841683     11.588028
  H      -4.294544      5.051900      9.660451
  O      -4.953026      5.154783      8.946295
  H      -5.467715      4.331536      8.949788
  H       0.091640      6.088092     10.671699
  O      -0.733371      6.542951     10.474310
  H      -0.572653      6.937843      9.591483
  S      -2.941366      4.495448     13.942011
  H      -2.140117      3.453617     13.635234
  H      -4.045004      3.720297     13.906215
15
Coordinates from ORCA-job neb_69_106_CI_MEP.QMRegion E -1703.016043759075
  H      -2.450738      2.963315     10.290060
  O      -2.289179      2.023935     10.079921
  H      -2.869252      1.845941      9.321622
  H      -2.012727      5.357031     10.495115
  O      -2.756513      4.743641     10.702241
  H      -2.921832      4.898509     11.645435
  H      -4.264349      5.034945      9.694103
  O      -4.923316      5.141148      8.980726
  H      -5.443554      4.321955      8.983002
  H       0.150665      6.071167     10.661915
  O      -0.677705      6.532850     10.495908
  H      -0.542045      6.935298      9.612746
  S      -2.822904      5.094909     14.027095
  H      -1.642181      4.444230     13.970521
  H      -3.500914      3.951847     14.260544
15
Coordinates from ORCA-job neb_69_106_CI_MEP.QMRegion E -1703.016023413647
  H      -2.464058      2.931389     10.289427
  O      -2.287585      1.997922     10.068655
  H      -2.867661      1.822276      9.309260
  H      -2.022421      5.314128     10.446462
  O      -2.778311      4.719217     10.657393
  H      -2.977534      4.931740     11.582964
  H      -4.278877      5.041628      9.665718
  O      -4.941564      5.154878      8.957203
  H      -5.463348      4.336055      8.961190
  H       0.161210      6.003370     10.613035
  O      -0.660834      6.489749     10.491542
  H      -0.540440      6.920519      9.619326
  S      -2.868337      5.612524     13.851463
  H      -1.532650      5.533589     13.683902
  H      -2.936267      4.367711     14.366607
15
Coordinates from ORCA-job neb_69_106_CI_MEP.QMRegion E -1703.016963032749
  H      -2.452228      2.954334     10.288444
  O      -2.284763      2.020303     10.065398
  H      -2.865637      1.848002      9.306035
  H      -1.972269      5.329191     10.435422
  O      -2.737503      4.753931     10.659443
  H      -2.928598      4.993568     11.580095
  H      -4.256720      5.058741      9.666794
  O      -4.923904      5.165212      8.961986
  H      -5.447317      4.347674      8.974354
  H       0.235039      6.010036     10.593411
  O      -0.582699      6.510573     10.500950
  H      -0.485402      6.939339      9.624207
  S      -2.773873      6.064021     13.708969
  H      -1.570748      6.446396     13.233728
  H      -2.256240      5.002098     14.359992
15
Coordinates from ORCA-job neb_69_106_CI_MEP.QMRegion E -1703.017951444586
  H      -2.496460      2.875267     10.436842
  O      -2.290408      1.982067     10.113855
  H      -2.887771      1.849012      9.359960
  H      -2.006712      5.263019     10.559486
  O      -2.760089      4.728382     10.888979
  H      -2.885767      5.073313     11.784435
  H      -4.264442      4.982323      9.782818
  O      -4.892664      5.095073      9.046236
  H      -5.428815      4.285150      9.032650
  H       0.231238      5.929712     10.565295
  O      -0.579222      6.438105     10.455594
  H      -0.470362      6.872589      9.581424
  S      -2.249653      7.056547     13.369713
  H      -1.515672      7.291717     12.259278
  H      -1.189979      6.530131     14.016855
