27
Coordinates from ORCA-job neb_122_180_CI_MEP.QMRegion E -1988.351172896650
  H       1.973494     -3.609604      4.161966
  O       1.836273     -4.095992      5.005892
  H       2.297404     -3.556986      5.664227
  H       3.279930     -6.155773      3.044836
  O       3.699679     -5.927254      2.181924
  H       2.982207     -5.600885      1.592447
  H       4.614733     -2.438468      5.565332
  O       4.464527     -2.956657      6.389190
  H       4.591101     -3.891123      6.115151
  H       2.191125     -5.695744      4.769970
  O       2.569291     -6.580115      4.516978
  H       1.824007     -7.154134      4.295710
  H       5.607171     -5.539101      4.759892
  O       5.067009     -5.575776      5.593940
  H       4.323356     -6.164170      5.399389
  H       6.635060     -5.919584      2.698518
  O       6.668431     -5.299699      3.455932
  H       7.585307     -5.337606      3.810397
  H       7.408381     -1.574689      6.459874
  O       7.264217     -2.477734      6.163501
  H       6.341051     -2.678211      6.420384
  H       8.925667     -3.944660      4.497995
  O       9.076366     -4.896847      4.614139
  H       8.847834     -5.077145      5.541053
  S       7.802802     -6.636808      7.245825
  H       6.583280     -6.305407      6.737698
  H       7.944626     -7.657319      6.374382
27
Coordinates from ORCA-job neb_122_180_CI_MEP.QMRegion E -1988.346752014497
  H       2.003819     -3.583234      4.161182
  O       1.890835     -4.064591      5.012086
  H       2.346032     -3.507776      5.659978
  H       3.315194     -6.139090      3.040107
  O       3.721121     -5.917214      2.167832
  H       2.997567     -5.595074      1.583968
  H       4.642055     -2.358803      5.592275
  O       4.496789     -2.866657      6.424931
  H       4.620053     -3.802715      6.149353
  H       2.268588     -5.643935      4.775545
  O       2.650827     -6.527989      4.521177
  H       1.906988     -7.117068      4.343224
  H       5.716583     -5.435749      4.826807
  O       5.123223     -5.427807      5.617244
  H       4.389847     -6.015232      5.389105
  H       6.710722     -5.912971      2.694149
  O       6.787812     -5.293811      3.449553
  H       7.704861     -5.358648      3.781930
  H       7.454761     -1.587893      6.437037
  O       7.305298     -2.492310      6.147112
  H       6.381068     -2.682967      6.411515
  H       8.985287     -3.798953      4.199388
  O       9.242695     -4.676151      4.543324
  H       9.056012     -4.603769      5.486410
  S       6.593398     -7.785726      7.744113
  H       5.904131     -6.671644      7.416003
  H       6.531503     -8.218654      6.468203
27
Coordinates from ORCA-job neb_122_180_CI_MEP.QMRegion E -1988.343514542303
  H       2.011922     -3.585939      4.168028
  O       1.919696     -4.058528      5.025794
  H       2.393429     -3.490931      5.654641
  H       3.339509     -6.133379      3.057294
  O       3.725975     -5.915445      2.174697
  H       2.994938     -5.594314      1.600129
  H       4.585851     -2.324700      5.605087
  O       4.370821     -2.828163      6.425247
  H       4.582665     -3.755087      6.178126
  H       2.349857     -5.616713      4.809599
  O       2.736115     -6.504960      4.565580
  H       1.989478     -7.096890      4.413059
  H       5.818266     -5.338488      4.852202
  O       5.245774     -5.322365      5.657063
  H       4.525356     -5.930416      5.454505
  H       6.751152     -5.896575      2.687131
  O       6.854777     -5.272724      3.435033
  H       7.776865     -5.343508      3.747866
  H       7.313494     -1.579277      6.422802
  O       7.302170     -2.500409      6.149510
  H       6.413905     -2.804098      6.408326
  H       9.021606     -3.732022      4.127574
  O       9.331779     -4.584457      4.493010
  H       9.173438     -4.482196      5.438295
  S       5.753227     -8.295372      7.831914
  H       5.264160     -7.040673      7.879329
  H       5.608557     -8.334741      6.492261
27
Coordinates from ORCA-job neb_122_180_CI_MEP.QMRegion E -1988.339812401681
  H       1.960480     -3.617793      4.152799
  O       1.847180     -4.068439      5.018707
  H       2.326965     -3.480263      5.631143
  H       3.321251     -6.137096      3.075404
  O       3.712995     -5.923212      2.192258
  H       2.985455     -5.598475      1.615236
  H       4.396941     -2.264922      5.584706
  O       4.052766     -2.736277      6.379114
  H       4.414978     -3.631932      6.240388
  H       2.310574     -5.622132      4.818221
  O       2.681157     -6.519516      4.577716
  H       1.916934     -7.075127      4.376991
  H       5.791328     -5.196170      4.796595
  O       5.305248     -5.091210      5.652862
  H       4.698234     -5.837005      5.678181
  H       6.696425     -5.885323      2.674732
  O       6.800557     -5.251145      3.414899
  H       7.713136     -5.340366      3.750237
  H       6.906872     -1.684680      6.392133
  O       7.234950     -2.547820      6.121778
  H       6.498700     -3.149201      6.295824
  H       8.981954     -3.745046      4.122455
  O       9.265065     -4.604687      4.495654
  H       9.123976     -4.485742      5.441360
  S       5.583219     -8.244784      7.719845
  H       4.712401     -7.256440      8.010261
  H       5.043897     -8.422982      6.496194
27
Coordinates from ORCA-job neb_122_180_CI_MEP.QMRegion E -1988.342807512555
  H       1.958400     -3.629301      4.165103
  O       1.840154     -4.073194      5.032362
  H       2.314346     -3.477425      5.641608
  H       3.322188     -6.149584      3.093226
  O       3.713682     -5.928578      2.208576
  H       2.985870     -5.600452      1.635719
  H       4.377528     -2.251824      5.594287
  O       4.012178     -2.701548      6.391369
  H       4.388708     -3.593914      6.291826
  H       2.319655     -5.656346      4.836829
  O       2.651619     -6.556743      4.568729
  H       1.864086     -7.066340      4.338466
  H       5.803936     -5.145609      4.796130
  O       5.380781     -4.967893      5.673336
  H       5.175254     -5.838448      6.030862
  H       6.691149     -5.890791      2.679103
  O       6.793775     -5.255192      3.417952
  H       7.704753     -5.339870      3.758407
  H       6.854966     -1.751589      6.419969
  O       7.236673     -2.582186      6.120405
  H       6.536443     -3.241611      6.243577
  H       8.974509     -3.746872      4.141682
  O       9.248876     -4.604631      4.526098
  H       9.089658     -4.474931      5.467634
  S       5.662624     -7.950414      7.556752
  H       4.559608     -7.374772      8.076423
  H       4.965943     -8.496036      6.539485
27
Coordinates from ORCA-job neb_122_180_CI_MEP.QMRegion E -1988.347986364055
  H       1.938639     -3.643826      4.159659
  O       1.814727     -4.085162      5.027059
  H       2.288409     -3.487902      5.636293
  H       3.295245     -6.159888      3.097221
  O       3.699312     -5.932425      2.220220
  H       2.976099     -5.602863      1.641903
  H       4.319692     -2.249118      5.581638
  O       3.926875     -2.669856      6.381317
  H       4.374396     -3.531728      6.384591
  H       2.264377     -5.684515      4.835486
  O       2.585873     -6.585691      4.560507
  H       1.795022     -7.074158      4.295167
  H       5.813648     -5.106099      4.904559
  O       5.536177     -4.868755      5.823994
  H       5.513261     -5.707601      6.310180
  H       6.635655     -5.895951      2.704656
  O       6.726872     -5.261959      3.446349
  H       7.641318     -5.335603      3.780634
  H       6.701629     -1.856216      6.391459
  O       7.210395     -2.618724      6.100626
  H       6.596542     -3.377405      6.157139
  H       8.938017     -3.759452      4.149689
  O       9.189584     -4.619784      4.545595
  H       9.037088     -4.468870      5.485053
  S       5.270835     -7.810301      7.429577
  H       4.174751     -7.334089      8.054842
  H       4.542209     -8.220578      6.370930
27
Coordinates from ORCA-job neb_122_180_CI_MEP.QMRegion E -1988.352071627113
  H       1.971479     -3.604769      4.164238
  O       1.873800     -4.069784      5.024517
  H       2.414890     -3.523609      5.629015
  H       3.298949     -6.138845      3.067572
  O       3.709955     -5.916748      2.197984
  H       2.990031     -5.587654      1.614193
  H       4.407635     -2.284109      5.595262
  O       4.013826     -2.725763      6.384884
  H       4.502639     -3.566843      6.411354
  H       2.218803     -5.622158      4.781603
  O       2.521871     -6.542299      4.513360
  H       1.734091     -7.033269      4.239385
  H       5.894153     -5.222228      5.079301
  O       5.668516     -4.978526      6.007436
  H       5.403293     -5.805453      6.445248
  H       6.662554     -5.909243      2.760012
  O       6.752795     -5.289041      3.511707
  H       7.677927     -5.347046      3.818208
  H       6.792324     -1.992008      6.540922
  O       7.309292     -2.702326      6.150009
  H       6.765799     -3.504264      6.267234
  H       8.985613     -3.747571      4.155660
  O       9.265455     -4.608959      4.525785
  H       9.182638     -4.468384      5.475399
  S       4.139039     -7.730422      7.128245
  H       3.334390     -7.074211      7.989497
  H       3.375755     -7.364448      6.055150
